                                   MODFLOW 6
                U.S. GEOLOGICAL SURVEY MODULAR HYDROLOGIC MODEL
                          GROUNDWATER FLOW MODEL (GWF)
                            VERSION 6.3.0 03/04/2022

   MODFLOW 6 compiled Mar 07 2022 13:50:09 with Intel(R) Fortran Intel(R) 64
   Compiler Classic for applications running on Intel(R) 64, Version 2021.5.0
                             Build 20211109_000000

This software has been approved for release by the U.S. Geological 
Survey (USGS). Although the software has been subjected to rigorous 
review, the USGS reserves the right to update the software as needed 
pursuant to further analysis and review. No warranty, expressed or 
implied, is made by the USGS or the U.S. Government as to the 
functionality of the software and related material nor shall the 
fact of release constitute any such warranty. Furthermore, the 
software is released on condition that neither the USGS nor the U.S. 
Government shall be held liable for any damages resulting from its 
authorized or unauthorized use. Also refer to the USGS Water 
Resources Software User Rights Notice for complete use, copyright, 
and distribution information.


As a work of the United States Government, this USGS product is 
in the public domain within the United States. You can copy, 
modify, distribute, and perform the work, even for commercial 
purposes, all without asking permission. Additionally, USGS 
waives copyright and related rights in the work worldwide 
through CC0 1.0 Universal Public Domain Dedication 
(https://creativecommons.org/publicdomain/zero/1.0/).

The following GNU Lesser General Public License (LGPL) libraries
are used in this USGS product:

    SPARSKIT version 2.0
      ilut, luson, and qsplit 
      (https://www-users.cse.umn.edu/~saad/software/SPARSKIT/)

    RCM - Reverse Cuthill McKee Ordering
      (https://people.math.sc.edu/Burkardt/f_src/rcm/rcm.html)

    BLAS - Basic Linear Algebra Subprograms Level 1
      (https://people.math.sc.edu/Burkardt/f_src/blas1_d/blas1_d.html)

    SPARSEKIT - Sparse Matrix Utility Package
      amux, dperm, dvperm, rperm, and cperm
      (https://people.sc.fsu.edu/~jburkardt/f77_src/sparsekit/sparsekit.html)

The following BSD-3 License libraries are used in this USGS product:

    Modern Fortran DAG Library
      Copyright (c) 2018, Jacob Williams
      All rights reserved.
      (https://github.com/jacobwilliams/daglib)

MODFLOW 6 compiler options: -Imac/obj_temp -O2 -no-heap-arrays -fpe0
-traceback -fpp -module mac/mod_temp/ -c -o mac/obj_temp/compilerversion.o

System command used to initiate simulation:
mf6

MODFLOW was compiled using uniform precision.

Real Variables
  KIND: 8
  TINY (smallest non-zero value):    2.225074-308
  HUGE (largest value):    1.797693+308
  PRECISION: 15
  BIT SIZE: 64

Integer Variables
  KIND: 4
  HUGE (largest value): 2147483647
  BIT SIZE: 32

Long Integer Variables
  KIND: 8
  HUGE (largest value): 9223372036854775807
  BIT SIZE: 64

Logical Variables
  KIND: 4
  BIT SIZE: 32
 

 OPENED freyberg6.rcha
 FILE TYPE:RCH6                   UNIT 1005   STATUS:OLD                 
 FORMAT:FORMATTED              ACCESS:SEQUENTIAL          
 ACTION:READ                


 OPENED freyberg6.dis
 FILE TYPE:DIS6                   UNIT 1006   STATUS:OLD                 
 FORMAT:FORMATTED              ACCESS:SEQUENTIAL          
 ACTION:READ                


 OPENED freyberg6.ic
 FILE TYPE:IC6                    UNIT 1007   STATUS:OLD                 
 FORMAT:FORMATTED              ACCESS:SEQUENTIAL          
 ACTION:READ                


 OPENED freyberg6.npf
 FILE TYPE:NPF6                   UNIT 1008   STATUS:OLD                 
 FORMAT:FORMATTED              ACCESS:SEQUENTIAL          
 ACTION:READ                


 OPENED freyberg6.sto
 FILE TYPE:STO6                   UNIT 1009   STATUS:OLD                 
 FORMAT:FORMATTED              ACCESS:SEQUENTIAL          
 ACTION:READ                


 OPENED freyberg6.oc
 FILE TYPE:OC6                    UNIT 1010   STATUS:OLD                 
 FORMAT:FORMATTED              ACCESS:SEQUENTIAL          
 ACTION:READ                


 OPENED freyberg6.ghb
 FILE TYPE:GHB6                   UNIT 1011   STATUS:OLD                 
 FORMAT:FORMATTED              ACCESS:SEQUENTIAL          
 ACTION:READ                


 OPENED freyberg6.sfr
 FILE TYPE:SFR6                   UNIT 1012   STATUS:OLD                 
 FORMAT:FORMATTED              ACCESS:SEQUENTIAL          
 ACTION:READ                


 OPENED freyberg6.obs
 FILE TYPE:OBS6                   UNIT 1013   STATUS:OLD                 
 FORMAT:FORMATTED              ACCESS:SEQUENTIAL          
 ACTION:READ                


 OPENED freyberg6.wel
 FILE TYPE:WEL6                   UNIT 1014   STATUS:OLD                 
 FORMAT:FORMATTED              ACCESS:SEQUENTIAL          
 ACTION:READ                

 NAMEFILE OPTIONS:
    NEWTON-RAPHSON method enabled for the model.

 DIS -- STRUCTURED GRID DISCRETIZATION PACKAGE, VERSION 2 : 3/27/2014 - INPUT READ FROM UNIT 1006


 # File generated by Flopy version 3.3.6 on 09/22/2023 at 19:14:14.
 PROCESSING DISCRETIZATION OPTIONS
    MODEL LENGTH UNIT IS METERS
    ANGROT SPECIFIED AS    -55.0000000000000    
 END OF DISCRETIZATION OPTIONS
 PROCESSING DISCRETIZATION DIMENSIONS
    NLAY =       3
    NROW =     120
    NCOL =      60
 END OF DISCRETIZATION DIMENSIONS
 PROCESSING GRIDDATA

 OPENED freyberg6.dis_delr.txt
 FILE TYPE:OPEN/CLOSE   UNIT 1016   STATUS:OLD                 
 FORMAT:FORMATTED              ACCESS:SEQUENTIAL          
 ACTION:READ                


 OPENED freyberg6.dis_delc.txt
 FILE TYPE:OPEN/CLOSE   UNIT 1017   STATUS:OLD                 
 FORMAT:FORMATTED              ACCESS:SEQUENTIAL          
 ACTION:READ                


 OPENED freyberg6.dis_top.txt
 FILE TYPE:OPEN/CLOSE   UNIT 1018   STATUS:OLD                 
 FORMAT:FORMATTED              ACCESS:SEQUENTIAL          
 ACTION:READ                


 OPENED freyberg6.dis_botm_layer1.txt
 FILE TYPE:OPEN/CLOSE   UNIT 1019   STATUS:OLD                 
 FORMAT:FORMATTED              ACCESS:SEQUENTIAL          
 ACTION:READ                


 OPENED freyberg6.dis_botm_layer2.txt
 FILE TYPE:OPEN/CLOSE   UNIT 1020   STATUS:OLD                 
 FORMAT:FORMATTED              ACCESS:SEQUENTIAL          
 ACTION:READ                


 OPENED freyberg6.dis_botm_layer3.txt
 FILE TYPE:OPEN/CLOSE   UNIT 1021   STATUS:OLD                 
 FORMAT:FORMATTED              ACCESS:SEQUENTIAL          
 ACTION:READ                


 OPENED freyberg6.dis_idomain_layer1.txt
 FILE TYPE:OPEN/CLOSE   UNIT 1022   STATUS:OLD                 
 FORMAT:FORMATTED              ACCESS:SEQUENTIAL          
 ACTION:READ                


 OPENED freyberg6.dis_idomain_layer2.txt
 FILE TYPE:OPEN/CLOSE   UNIT 1023   STATUS:OLD                 
 FORMAT:FORMATTED              ACCESS:SEQUENTIAL          
 ACTION:READ                


 OPENED freyberg6.dis_idomain_layer3.txt
 FILE TYPE:OPEN/CLOSE   UNIT 1024   STATUS:OLD                 
 FORMAT:FORMATTED              ACCESS:SEQUENTIAL          
 ACTION:READ                

 END PROCESSING GRIDDATA

 THE SPECIFIED IDOMAIN RESULTS IN A REDUCED NUMBER OF CELLS.
 NUMBER OF USER NODES: 21600
 NUMBER OF NODES IN SOLUTION: 19062



 NPF -- NODE PROPERTY FLOW PACKAGE, VERSION 1, 3/30/2015 INPUT READ FROM UNIT 1008


 # File generated by Flopy version 3.3.6 on 09/22/2023 at 19:14:14.
 PROCESSING NPF OPTIONS
    CELL-BY-CELL FLOW INFORMATION WILL BE SAVED TO BINARY FILE WHENEVER ICBCFL IS NOT ZERO.
 END OF NPF OPTIONS

 WEL   -- WEL PACKAGE, VERSION 8, 2/22/2014 INPUT READ FROM UNIT 1014
 # File generated by Flopy version 3.3.6 on 09/22/2023 at 19:14:15.

 PROCESSING WEL OPTIONS
 END OF WEL OPTIONS

 PROCESSING WEL DIMENSIONS
    MAXBOUND =       6
 END OF WEL DIMENSIONS

 GHB   -- GHB PACKAGE, VERSION 8, 2/22/2014 INPUT READ FROM UNIT 1011
 # File generated by Flopy version 3.3.6 on 09/22/2023 at 19:14:14.

 PROCESSING GHB OPTIONS
    LISTS OF GHB CELLS WILL BE PRINTED.
    GHB FLOWS WILL BE PRINTED TO LISTING FILE.
    FLOWS WILL BE SAVED TO BUDGET FILE SPECIFIED IN OUTPUT CONTROL
 END OF GHB OPTIONS

 PROCESSING GHB DIMENSIONS
    MAXBOUND =      33
 END OF GHB DIMENSIONS

 RCH   -- RCH PACKAGE, VERSION 8, 2/22/2014 INPUT READ FROM UNIT 1005
 # File generated by Flopy version 3.3.6 on 09/22/2023 at 19:14:14.

 PROCESSING RCH OPTIONS
    RECHARGE INPUT WILL BE READ AS ARRAY(S).
 END OF RCHA OPTIONS

 SFR   -- SFR PACKAGE, VERSION 8, 2/22/2014 INPUT READ FROM UNIT 1012
 # File generated by Flopy version 3.3.6 on 09/22/2023 at 19:14:14.

 PROCESSING SFR OPTIONS
    SFR BOUNDARIES HAVE NAMES IN LAST COLUMN.
    LISTS OF SFR CELLS WILL BE PRINTED.
    FLOWS WILL BE SAVED TO BUDGET FILE SPECIFIED IN OUTPUT CONTROL

 OPENED sfr.obs
 FILE TYPE:OBS   UNIT 1025   STATUS:OLD                 
 FORMAT:FORMATTED              ACCESS:SEQUENTIAL          
 ACTION:READ                

    MAXIMUM DEPTH CHANGE VALUE (.1000000000000000E-03) SPECIFIED.
    UNIT CONVERSION VALUE (86400.00000000000) SPECIFIED.
 END OF SFR OPTIONS

 PROCESSING SFR DIMENSIONS
    NREACHES = 120
 END OF SFR DIMENSIONS

 OPENED freyberg6.sfr_packagedata.txt
 FILE TYPE:OPEN/CLOSE   UNIT 1026   STATUS:OLD                 
 FORMAT:FORMATTED              ACCESS:SEQUENTIAL          
 ACTION:READ                


 PROCESSING SFR PACKAGEDATA
 END OF SFR PACKAGEDATA

 OPENED freyberg6.sfr_connectiondata.txt
 FILE TYPE:OPEN/CLOSE   UNIT 1027   STATUS:OLD                 
 FORMAT:FORMATTED              ACCESS:SEQUENTIAL          
 ACTION:READ                


 PROCESSING SFR CONNECTIONDATA
 END OF SFR CONNECTIONDATA

 IC -- INITIAL CONDITIONS PACKAGE, VERSION 8, 3/28/2015 INPUT READ FROM UNIT 1007
 # File generated by Flopy version 3.3.6 on 09/22/2023 at 19:14:14.
 PROCESSING GRIDDATA

 OPENED freyberg6.ic_strt_layer1.txt
 FILE TYPE:OPEN/CLOSE   UNIT 1028   STATUS:OLD                 
 FORMAT:FORMATTED              ACCESS:SEQUENTIAL          
 ACTION:READ                


 OPENED freyberg6.ic_strt_layer2.txt
 FILE TYPE:OPEN/CLOSE   UNIT 1029   STATUS:OLD                 
 FORMAT:FORMATTED              ACCESS:SEQUENTIAL          
 ACTION:READ                


 OPENED freyberg6.ic_strt_layer3.txt
 FILE TYPE:OPEN/CLOSE   UNIT 1030   STATUS:OLD                 
 FORMAT:FORMATTED              ACCESS:SEQUENTIAL          
 ACTION:READ                

 END PROCESSING GRIDDATA
 PROCESSING GRIDDATA

 OPENED freyberg6.npf_icelltype_layer1.txt
 FILE TYPE:OPEN/CLOSE   UNIT 1031   STATUS:OLD                 
 FORMAT:FORMATTED              ACCESS:SEQUENTIAL          
 ACTION:READ                


 OPENED freyberg6.npf_icelltype_layer2.txt
 FILE TYPE:OPEN/CLOSE   UNIT 1032   STATUS:OLD                 
 FORMAT:FORMATTED              ACCESS:SEQUENTIAL          
 ACTION:READ                


 OPENED freyberg6.npf_icelltype_layer3.txt
 FILE TYPE:OPEN/CLOSE   UNIT 1033   STATUS:OLD                 
 FORMAT:FORMATTED              ACCESS:SEQUENTIAL          
 ACTION:READ                


 OPENED freyberg6.npf_k_layer1.txt
 FILE TYPE:OPEN/CLOSE   UNIT 1034   STATUS:OLD                 
 FORMAT:FORMATTED              ACCESS:SEQUENTIAL          
 ACTION:READ                


 OPENED freyberg6.npf_k_layer2.txt
 FILE TYPE:OPEN/CLOSE   UNIT 1035   STATUS:OLD                 
 FORMAT:FORMATTED              ACCESS:SEQUENTIAL          
 ACTION:READ                


 OPENED freyberg6.npf_k_layer3.txt
 FILE TYPE:OPEN/CLOSE   UNIT 1036   STATUS:OLD                 
 FORMAT:FORMATTED              ACCESS:SEQUENTIAL          
 ACTION:READ                


 OPENED freyberg6.npf_k33_layer1.txt
 FILE TYPE:OPEN/CLOSE   UNIT 1037   STATUS:OLD                 
 FORMAT:FORMATTED              ACCESS:SEQUENTIAL          
 ACTION:READ                


 OPENED freyberg6.npf_k33_layer2.txt
 FILE TYPE:OPEN/CLOSE   UNIT 1038   STATUS:OLD                 
 FORMAT:FORMATTED              ACCESS:SEQUENTIAL          
 ACTION:READ                


 OPENED freyberg6.npf_k33_layer3.txt
 FILE TYPE:OPEN/CLOSE   UNIT 1039   STATUS:OLD                 
 FORMAT:FORMATTED              ACCESS:SEQUENTIAL          
 ACTION:READ                

 K22 not provided.  Assuming K22 = K.
 END PROCESSING GRIDDATA

 STO -- STORAGE PACKAGE, VERSION 1, 5/19/2014 INPUT READ FROM UNIT 1009


 # File generated by Flopy version 3.3.6 on 09/22/2023 at 19:14:14.
 PROCESSING STORAGE OPTIONS
 END OF STORAGE OPTIONS
 PROCESSING GRIDDATA

 OPENED freyberg6.sto_iconvert_layer1.txt
 FILE TYPE:OPEN/CLOSE   UNIT 1040   STATUS:OLD                 
 FORMAT:FORMATTED              ACCESS:SEQUENTIAL          
 ACTION:READ                


 OPENED freyberg6.sto_iconvert_layer2.txt
 FILE TYPE:OPEN/CLOSE   UNIT 1041   STATUS:OLD                 
 FORMAT:FORMATTED              ACCESS:SEQUENTIAL          
 ACTION:READ                


 OPENED freyberg6.sto_iconvert_layer3.txt
 FILE TYPE:OPEN/CLOSE   UNIT 1042   STATUS:OLD                 
 FORMAT:FORMATTED              ACCESS:SEQUENTIAL          
 ACTION:READ                


 OPENED freyberg6.sto_ss_layer1.txt
 FILE TYPE:OPEN/CLOSE   UNIT 1043   STATUS:OLD                 
 FORMAT:FORMATTED              ACCESS:SEQUENTIAL          
 ACTION:READ                


 OPENED freyberg6.sto_ss_layer2.txt
 FILE TYPE:OPEN/CLOSE   UNIT 1044   STATUS:OLD                 
 FORMAT:FORMATTED              ACCESS:SEQUENTIAL          
 ACTION:READ                


 OPENED freyberg6.sto_ss_layer3.txt
 FILE TYPE:OPEN/CLOSE   UNIT 1045   STATUS:OLD                 
 FORMAT:FORMATTED              ACCESS:SEQUENTIAL          
 ACTION:READ                


 OPENED freyberg6.sto_sy_layer1.txt
 FILE TYPE:OPEN/CLOSE   UNIT 1046   STATUS:OLD                 
 FORMAT:FORMATTED              ACCESS:SEQUENTIAL          
 ACTION:READ                


 OPENED freyberg6.sto_sy_layer2.txt
 FILE TYPE:OPEN/CLOSE   UNIT 1047   STATUS:OLD                 
 FORMAT:FORMATTED              ACCESS:SEQUENTIAL          
 ACTION:READ                


 OPENED freyberg6.sto_sy_layer3.txt
 FILE TYPE:OPEN/CLOSE   UNIT 1048   STATUS:OLD                 
 FORMAT:FORMATTED              ACCESS:SEQUENTIAL          
 ACTION:READ                

 END PROCESSING GRIDDATA

The observation utility is active for "FREYBERG6"
 # File generated by Flopy version 3.3.6 on 09/22/2023 at 19:14:14.

Processing observation options:

Text output number of digits of precision set to: 10


 OPENED freyberg6.obs_continuous_heads.csv.txt
 FILE TYPE:OPEN/CLOSE   UNIT 1049   STATUS:OLD                 
 FORMAT:FORMATTED              ACCESS:SEQUENTIAL          
 ACTION:READ                

    BINARY GRID INFORMATION WILL BE WRITTEN TO:
      UNIT NUMBER: 1051
      FILE NAME: /Users/JWhite/Dev/pypestutils/examples/freyberg_monthly/freyberg6.dis.grb

 OPENED /Users/JWhite/Dev/pypestutils/examples/freyberg_monthly/freyberg6.dis.grb
 FILE TYPE:DATA(BINARY)   UNIT 1051   STATUS:REPLACE             
 FORMAT:UNFORMATTED            ACCESS:STREAM              
 ACTION:READWRITE           

      THE LAST TIME STEP WILL BE PRINTED
      THE LAST TIME STEP WILL BE PRINTED
 # File generated by Flopy version 3.3.6 on 09/22/2023 at 19:14:14.

 PROCESSING OC OPTIONS

    BUDGET INFORMATION WILL BE WRITTEN TO:
      UNIT NUMBER: 1052
      FILE NAME: freyberg6_freyberg.cbc

 OPENED freyberg6_freyberg.cbc
 FILE TYPE:DATA(BINARY)   UNIT 1052   STATUS:REPLACE             
 FORMAT:UNFORMATTED            ACCESS:STREAM              
 ACTION:READWRITE           

    HEAD INFORMATION WILL BE WRITTEN TO:
      UNIT NUMBER: 1053
      FILE NAME: freyberg6_freyberg.hds

 OPENED freyberg6_freyberg.hds
 FILE TYPE:DATA(BINARY)   UNIT 1053   STATUS:REPLACE             
 FORMAT:UNFORMATTED            ACCESS:STREAM              
 ACTION:READWRITE           

 END OF OC OPTIONS

The observation utility is active for "SFR_1"
 # File generated by Flopy version 3.3.6 on 09/22/2023 at 19:14:14.

Processing observation options:



 OPENED sfr.obs_continuous_sfr.csv.txt
 FILE TYPE:OPEN/CLOSE   UNIT 1054   STATUS:OLD                 
 FORMAT:FORMATTED              ACCESS:SEQUENTIAL          
 ACTION:READ                


 SFR PACKAGE (SFR_1) STATIC REACH DATA
 ---------------------------------------------------------------------------------------------------------------------------------------
                                                                                                                              UPSTREAM  
   NUMBER   CELLID                  LENGTH       WIDTH        SLOPE         TOP       THICKNESS        HK       ROUGHNESS     FRACTION  
 ---------------------------------------------------------------------------------------------------------------------------------------
     1      (1,1,47)              83.333       5.0000       5.00000E-05  34.000       1.0000       0.10000      3.00000E-02  1.0000     
     2      (1,2,47)              83.333       5.0000       5.00000E-05  33.996       1.0000       0.10000      3.00000E-02  1.0000     
     3      (1,3,47)              83.333       5.0000       5.00000E-05  33.992       1.0000       0.10000      3.00000E-02  1.0000     
     4      (1,4,47)              83.333       5.0000       5.00000E-05  33.987       1.0000       0.10000      3.00000E-02  1.0000     
     5      (1,5,47)              83.333       5.0000       5.00000E-05  33.983       1.0000       0.10000      3.00000E-02  1.0000     
     6      (1,6,47)              83.333       5.0000       5.00000E-05  33.979       1.0000       0.10000      3.00000E-02  1.0000     
     7      (1,7,47)              83.333       5.0000       5.00000E-05  33.975       1.0000       0.10000      3.00000E-02  1.0000     
     8      (1,8,47)              83.333       5.0000       5.00000E-05  33.971       1.0000       0.10000      3.00000E-02  1.0000     
     9      (1,9,47)              83.333       5.0000       5.00000E-05  33.966       1.0000       0.10000      3.00000E-02  1.0000     
     10     (1,10,47)             83.333       5.0000       5.00000E-05  33.962       1.0000       0.10000      3.00000E-02  1.0000     
     11     (1,11,47)             83.333       5.0000       5.00000E-05  33.958       1.0000       0.10000      3.00000E-02  1.0000     
     12     (1,12,47)             83.333       5.0000       5.00000E-05  33.954       1.0000       0.10000      3.00000E-02  1.0000     
     13     (1,13,47)             83.333       5.0000       5.00000E-05  33.950       1.0000       0.10000      3.00000E-02  1.0000     
     14     (1,14,47)             83.333       5.0000       5.00000E-05  33.945       1.0000       0.10000      3.00000E-02  1.0000     
     15     (1,15,47)             83.333       5.0000       5.00000E-05  33.941       1.0000       0.10000      3.00000E-02  1.0000     
     16     (1,16,47)             83.333       5.0000       5.00000E-05  33.937       1.0000       0.10000      3.00000E-02  1.0000     
     17     (1,17,47)             83.333       5.0000       5.00000E-05  33.933       1.0000       0.10000      3.00000E-02  1.0000     
     18     (1,18,47)             83.333       5.0000       5.00000E-05  33.929       1.0000       0.10000      3.00000E-02  1.0000     
     19     (1,19,47)             83.333       5.0000       5.00000E-05  33.924       1.0000       0.10000      3.00000E-02  1.0000     
     20     (1,20,47)             83.333       5.0000       5.00000E-05  33.920       1.0000       0.10000      3.00000E-02  1.0000     
     21     (1,21,47)             83.333       5.0000       5.00000E-05  33.916       1.0000       0.10000      3.00000E-02  1.0000     
     22     (1,22,47)             83.333       5.0000       5.00000E-05  33.912       1.0000       0.10000      3.00000E-02  1.0000     
     23     (1,23,47)             83.333       5.0000       5.00000E-05  33.908       1.0000       0.10000      3.00000E-02  1.0000     
     24     (1,24,47)             83.333       5.0000       5.00000E-05  33.903       1.0000       0.10000      3.00000E-02  1.0000     
     25     (1,25,47)             83.333       5.0000       5.00000E-05  33.899       1.0000       0.10000      3.00000E-02  1.0000     
     26     (1,26,47)             83.333       5.0000       5.00000E-05  33.895       1.0000       0.10000      3.00000E-02  1.0000     
     27     (1,27,47)             83.333       5.0000       5.00000E-05  33.891       1.0000       0.10000      3.00000E-02  1.0000     
     28     (1,28,47)             83.333       5.0000       5.00000E-05  33.887       1.0000       0.10000      3.00000E-02  1.0000     
     29     (1,29,47)             83.333       5.0000       5.00000E-05  33.882       1.0000       0.10000      3.00000E-02  1.0000     
     30     (1,30,47)             83.333       5.0000       5.00000E-05  33.878       1.0000       0.10000      3.00000E-02  1.0000     
     31     (1,31,47)             83.333       5.0000       5.00000E-05  33.874       1.0000       0.10000      3.00000E-02  1.0000     
     32     (1,32,47)             83.333       5.0000       5.00000E-05  33.870       1.0000       0.10000      3.00000E-02  1.0000     
     33     (1,33,47)             83.333       5.0000       5.00000E-05  33.866       1.0000       0.10000      3.00000E-02  1.0000     
     34     (1,34,47)             83.333       5.0000       5.00000E-05  33.861       1.0000       0.10000      3.00000E-02  1.0000     
     35     (1,35,47)             83.333       5.0000       5.00000E-05  33.857       1.0000       0.10000      3.00000E-02  1.0000     
     36     (1,36,47)             83.333       5.0000       5.00000E-05  33.853       1.0000       0.10000      3.00000E-02  1.0000     
     37     (1,37,47)             83.333       5.0000       5.00000E-05  33.849       1.0000       0.10000      3.00000E-02  1.0000     
     38     (1,38,47)             83.333       5.0000       5.00000E-05  33.845       1.0000       0.10000      3.00000E-02  1.0000     
     39     (1,39,47)             83.333       5.0000       5.00000E-05  33.840       1.0000       0.10000      3.00000E-02  1.0000     
     40     (1,40,47)             83.333       5.0000       5.00000E-05  33.836       1.0000       0.10000      3.00000E-02  1.0000     
     41     (1,41,47)             83.333       5.0000       5.00000E-05  33.832       1.0000       0.10000      3.00000E-02  1.0000     
     42     (1,42,47)             83.333       5.0000       5.00000E-05  33.828       1.0000       0.10000      3.00000E-02  1.0000     
     43     (1,43,47)             83.333       5.0000       5.00000E-05  33.824       1.0000       0.10000      3.00000E-02  1.0000     
     44     (1,44,47)             83.333       5.0000       5.00000E-05  33.819       1.0000       0.10000      3.00000E-02  1.0000     
     45     (1,45,47)             83.333       5.0000       5.00000E-05  33.815       1.0000       0.10000      3.00000E-02  1.0000     
     46     (1,46,47)             83.333       5.0000       5.00000E-05  33.811       1.0000       0.10000      3.00000E-02  1.0000     
     47     (1,47,47)             83.333       5.0000       5.00000E-05  33.807       1.0000       0.10000      3.00000E-02  1.0000     
     48     (1,48,47)             83.333       5.0000       5.00000E-05  33.803       1.0000       0.10000      3.00000E-02  1.0000     
     49     (1,49,47)             83.333       5.0000       5.00000E-05  33.798       1.0000       0.10000      3.00000E-02  1.0000     
     50     (1,50,47)             83.333       5.0000       5.00000E-05  33.794       1.0000       0.10000      3.00000E-02  1.0000     
     51     (1,51,47)             83.333       5.0000       5.00000E-05  33.790       1.0000       0.10000      3.00000E-02  1.0000     
     52     (1,52,47)             83.333       5.0000       5.00000E-05  33.786       1.0000       0.10000      3.00000E-02  1.0000     
     53     (1,53,47)             83.333       5.0000       5.00000E-05  33.782       1.0000       0.10000      3.00000E-02  1.0000     
     54     (1,54,47)             83.333       5.0000       5.00000E-05  33.777       1.0000       0.10000      3.00000E-02  1.0000     
     55     (1,55,47)             83.333       5.0000       5.00000E-05  33.773       1.0000       0.10000      3.00000E-02  1.0000     
     56     (1,56,47)             83.333       5.0000       5.00000E-05  33.769       1.0000       0.10000      3.00000E-02  1.0000     
     57     (1,57,47)             83.333       5.0000       5.00000E-05  33.765       1.0000       0.10000      3.00000E-02  1.0000     
     58     (1,58,47)             83.333       5.0000       5.00000E-05  33.761       1.0000       0.10000      3.00000E-02  1.0000     
     59     (1,59,47)             83.333       5.0000       5.00000E-05  33.756       1.0000       0.10000      3.00000E-02  1.0000     
     60     (1,60,47)             83.333       5.0000       5.00000E-05  33.752       1.0000       0.10000      3.00000E-02  1.0000     
     61     (1,61,47)             83.333       5.0000       5.00000E-05  33.748       1.0000       0.10000      3.00000E-02  1.0000     
     62     (1,62,47)             83.333       5.0000       5.00000E-05  33.744       1.0000       0.10000      3.00000E-02  1.0000     
     63     (1,63,47)             83.333       5.0000       5.00000E-05  33.739       1.0000       0.10000      3.00000E-02  1.0000     
     64     (1,64,47)             83.333       5.0000       5.00000E-05  33.735       1.0000       0.10000      3.00000E-02  1.0000     
     65     (1,65,47)             83.333       5.0000       5.00000E-05  33.731       1.0000       0.10000      3.00000E-02  1.0000     
     66     (1,66,47)             83.333       5.0000       5.00000E-05  33.727       1.0000       0.10000      3.00000E-02  1.0000     
     67     (1,67,47)             83.333       5.0000       5.00000E-05  33.723       1.0000       0.10000      3.00000E-02  1.0000     
     68     (1,68,47)             83.333       5.0000       5.00000E-05  33.718       1.0000       0.10000      3.00000E-02  1.0000     
     69     (1,69,47)             83.333       5.0000       5.00000E-05  33.714       1.0000       0.10000      3.00000E-02  1.0000     
     70     (1,70,47)             83.333       5.0000       5.00000E-05  33.710       1.0000       0.10000      3.00000E-02  1.0000     
     71     (1,71,47)             83.333       5.0000       5.00000E-05  33.706       1.0000       0.10000      3.00000E-02  1.0000     
     72     (1,72,47)             83.333       5.0000       5.00000E-05  33.702       1.0000       0.10000      3.00000E-02  1.0000     
     73     (1,73,47)             83.333       5.0000       5.00000E-05  33.697       1.0000       0.10000      3.00000E-02  1.0000     
     74     (1,74,47)             83.333       5.0000       5.00000E-05  33.693       1.0000       0.10000      3.00000E-02  1.0000     
     75     (1,75,47)             83.333       5.0000       5.00000E-05  33.689       1.0000       0.10000      3.00000E-02  1.0000     
     76     (1,76,47)             83.333       5.0000       5.00000E-05  33.685       1.0000       0.10000      3.00000E-02  1.0000     
     77     (1,77,47)             83.333       5.0000       5.00000E-05  33.681       1.0000       0.10000      3.00000E-02  1.0000     
     78     (1,78,47)             83.333       5.0000       5.00000E-05  33.676       1.0000       0.10000      3.00000E-02  1.0000     
     79     (1,79,47)             83.333       5.0000       5.00000E-05  33.672       1.0000       0.10000      3.00000E-02  1.0000     
     80     (1,80,47)             83.333       5.0000       5.00000E-05  33.668       1.0000       0.10000      3.00000E-02  1.0000     
     81     (1,81,47)             83.333       5.0000       5.00000E-05  33.664       1.0000       0.10000      3.00000E-02  1.0000     
     82     (1,82,47)             83.333       5.0000       5.00000E-05  33.660       1.0000       0.10000      3.00000E-02  1.0000     
     83     (1,83,47)             83.333       5.0000       5.00000E-05  33.655       1.0000       0.10000      3.00000E-02  1.0000     
     84     (1,84,47)             83.333       5.0000       5.00000E-05  33.651       1.0000       0.10000      3.00000E-02  1.0000     
     85     (1,85,47)             83.333       5.0000       5.00000E-05  33.647       1.0000       0.10000      3.00000E-02  1.0000     
     86     (1,86,47)             83.333       5.0000       5.00000E-05  33.643       1.0000       0.10000      3.00000E-02  1.0000     
     87     (1,87,47)             83.333       5.0000       5.00000E-05  33.639       1.0000       0.10000      3.00000E-02  1.0000     
     88     (1,88,47)             83.333       5.0000       5.00000E-05  33.634       1.0000       0.10000      3.00000E-02  1.0000     
     89     (1,89,47)             83.333       5.0000       5.00000E-05  33.630       1.0000       0.10000      3.00000E-02  1.0000     
     90     (1,90,47)             83.333       5.0000       5.00000E-05  33.626       1.0000       0.10000      3.00000E-02  1.0000     
     91     (1,91,47)             83.333       5.0000       5.00000E-05  33.622       1.0000       0.10000      3.00000E-02  1.0000     
     92     (1,92,47)             83.333       5.0000       5.00000E-05  33.618       1.0000       0.10000      3.00000E-02  1.0000     
     93     (1,93,47)             83.333       5.0000       5.00000E-05  33.613       1.0000       0.10000      3.00000E-02  1.0000     
     94     (1,94,47)             83.333       5.0000       5.00000E-05  33.609       1.0000       0.10000      3.00000E-02  1.0000     
     95     (1,95,47)             83.333       5.0000       5.00000E-05  33.605       1.0000       0.10000      3.00000E-02  1.0000     
     96     (1,96,47)             83.333       5.0000       5.00000E-05  33.601       1.0000       0.10000      3.00000E-02  1.0000     
     97     (1,97,47)             83.333       5.0000       5.00000E-05  33.597       1.0000       0.10000      3.00000E-02  1.0000     
     98     (1,98,47)             83.333       5.0000       5.00000E-05  33.592       1.0000       0.10000      3.00000E-02  1.0000     
     99     (1,99,47)             83.333       5.0000       5.00000E-05  33.588       1.0000       0.10000      3.00000E-02  1.0000     
    100     (1,100,47)            83.333       5.0000       5.00000E-05  33.584       1.0000       0.10000      3.00000E-02  1.0000     
    101     (1,101,47)            83.333       5.0000       5.00000E-05  33.580       1.0000       0.10000      3.00000E-02  1.0000     
    102     (1,102,47)            83.333       5.0000       5.00000E-05  33.576       1.0000       0.10000      3.00000E-02  1.0000     
    103     (1,103,47)            83.333       5.0000       5.00000E-05  33.571       1.0000       0.10000      3.00000E-02  1.0000     
    104     (1,104,47)            83.333       5.0000       5.00000E-05  33.567       1.0000       0.10000      3.00000E-02  1.0000     
    105     (1,105,47)            83.333       5.0000       5.00000E-05  33.563       1.0000       0.10000      3.00000E-02  1.0000     
    106     (1,106,47)            83.333       5.0000       5.00000E-05  33.559       1.0000       0.10000      3.00000E-02  1.0000     
    107     (1,107,47)            83.333       5.0000       5.00000E-05  33.555       1.0000       0.10000      3.00000E-02  1.0000     
    108     (1,108,47)            83.333       5.0000       5.00000E-05  33.550       1.0000       0.10000      3.00000E-02  1.0000     
    109     (1,109,47)            83.333       5.0000       5.00000E-05  33.546       1.0000       0.10000      3.00000E-02  1.0000     
    110     (1,110,47)            83.333       5.0000       5.00000E-05  33.542       1.0000       0.10000      3.00000E-02  1.0000     
    111     (1,111,47)            83.333       5.0000       5.00000E-05  33.538       1.0000       0.10000      3.00000E-02  1.0000     
    112     (1,112,47)            83.333       5.0000       5.00000E-05  33.534       1.0000       0.10000      3.00000E-02  1.0000     
    113     (1,113,47)            83.333       5.0000       5.00000E-05  33.529       1.0000       0.10000      3.00000E-02  1.0000     
    114     (1,114,47)            83.333       5.0000       5.00000E-05  33.525       1.0000       0.10000      3.00000E-02  1.0000     
    115     (1,115,47)            83.333       5.0000       5.00000E-05  33.521       1.0000       0.10000      3.00000E-02  1.0000     
    116     (1,116,47)            83.333       5.0000       5.00000E-05  33.517       1.0000       0.10000      3.00000E-02  1.0000     
    117     (1,117,47)            83.333       5.0000       5.00000E-05  33.513       1.0000       0.10000      3.00000E-02  1.0000     
    118     (1,118,47)            83.333       5.0000       5.00000E-05  33.508       1.0000       0.10000      3.00000E-02  1.0000     
    119     (1,119,47)            83.333       5.0000       5.00000E-05  33.504       1.0000       0.10000      3.00000E-02  1.0000     
    120     (1,120,47)            83.333       5.0000       5.00000E-05  33.501       1.0000       0.10000      3.00000E-02  1.0000     
 ---------------------------------------------------------------------------------------------------------------------------------------



 SFR PACKAGE (SFR_1) STATIC REACH CONNECTION DATA
 --------------------------------
   REACH      CONN 1     CONN 2  
 --------------------------------
     1          2                
     2          1          3     
     3          2          4     
     4          3          5     
     5          4          6     
     6          5          7     
     7          6          8     
     8          7          9     
     9          8          10    
     10         9          11    
     11         10         12    
     12         11         13    
     13         12         14    
     14         13         15    
     15         14         16    
     16         15         17    
     17         16         18    
     18         17         19    
     19         18         20    
     20         19         21    
     21         20         22    
     22         21         23    
     23         22         24    
     24         23         25    
     25         24         26    
     26         25         27    
     27         26         28    
     28         27         29    
     29         28         30    
     30         29         31    
     31         30         32    
     32         31         33    
     33         32         34    
     34         33         35    
     35         34         36    
     36         35         37    
     37         36         38    
     38         37         39    
     39         38         40    
     40         39         41    
     41         40         42    
     42         41         43    
     43         42         44    
     44         43         45    
     45         44         46    
     46         45         47    
     47         46         48    
     48         47         49    
     49         48         50    
     50         49         51    
     51         50         52    
     52         51         53    
     53         52         54    
     54         53         55    
     55         54         56    
     56         55         57    
     57         56         58    
     58         57         59    
     59         58         60    
     60         59         61    
     61         60         62    
     62         61         63    
     63         62         64    
     64         63         65    
     65         64         66    
     66         65         67    
     67         66         68    
     68         67         69    
     69         68         70    
     70         69         71    
     71         70         72    
     72         71         73    
     73         72         74    
     74         73         75    
     75         74         76    
     76         75         77    
     77         76         78    
     78         77         79    
     79         78         80    
     80         79         81    
     81         80         82    
     82         81         83    
     83         82         84    
     84         83         85    
     85         84         86    
     86         85         87    
     87         86         88    
     88         87         89    
     89         88         90    
     90         89         91    
     91         90         92    
     92         91         93    
     93         92         94    
     94         93         95    
     95         94         96    
     96         95         97    
     97         96         98    
     98         97         99    
     99         98        100    
    100         99        101    
    101        100        102    
    102        101        103    
    103        102        104    
    104        103        105    
    105        104        106    
    106        105        107    
    107        106        108    
    108        107        109    
    109        108        110    
    110        109        111    
    111        110        112    
    112        111        113    
    113        112        114    
    114        113        115    
    115        114        116    
    116        115        117    
    117        116        118    
    118        117        119    
    119        118        120    
    120        119               
 --------------------------------



 SFR PACKAGE (SFR_1) STATIC UPSTREAM REACH CONNECTION DATA
 ---------------------
             UPSTREAM 
   REACH      CONN 1  
 ---------------------
     1                
     2          1     
     3          2     
     4          3     
     5          4     
     6          5     
     7          6     
     8          7     
     9          8     
     10         9     
     11         10    
     12         11    
     13         12    
     14         13    
     15         14    
     16         15    
     17         16    
     18         17    
     19         18    
     20         19    
     21         20    
     22         21    
     23         22    
     24         23    
     25         24    
     26         25    
     27         26    
     28         27    
     29         28    
     30         29    
     31         30    
     32         31    
     33         32    
     34         33    
     35         34    
     36         35    
     37         36    
     38         37    
     39         38    
     40         39    
     41         40    
     42         41    
     43         42    
     44         43    
     45         44    
     46         45    
     47         46    
     48         47    
     49         48    
     50         49    
     51         50    
     52         51    
     53         52    
     54         53    
     55         54    
     56         55    
     57         56    
     58         57    
     59         58    
     60         59    
     61         60    
     62         61    
     63         62    
     64         63    
     65         64    
     66         65    
     67         66    
     68         67    
     69         68    
     70         69    
     71         70    
     72         71    
     73         72    
     74         73    
     75         74    
     76         75    
     77         76    
     78         77    
     79         78    
     80         79    
     81         80    
     82         81    
     83         82    
     84         83    
     85         84    
     86         85    
     87         86    
     88         87    
     89         88    
     90         89    
     91         90    
     92         91    
     93         92    
     94         93    
     95         94    
     96         95    
     97         96    
     98         97    
     99         98    
    100         99    
    101        100    
    102        101    
    103        102    
    104        103    
    105        104    
    106        105    
    107        106    
    108        107    
    109        108    
    110        109    
    111        110    
    112        111    
    113        112    
    114        113    
    115        114    
    116        115    
    117        116    
    118        117    
    119        118    
    120        119    
 ---------------------



 SFR PACKAGE (SFR_1) STATIC DOWNSTREAM REACH CONNECTION DATA
 ---------------------
            DOWNSTREAM
   REACH      CONN 1  
 ---------------------
     1          2     
     2          3     
     3          4     
     4          5     
     5          6     
     6          7     
     7          8     
     8          9     
     9          10    
     10         11    
     11         12    
     12         13    
     13         14    
     14         15    
     15         16    
     16         17    
     17         18    
     18         19    
     19         20    
     20         21    
     21         22    
     22         23    
     23         24    
     24         25    
     25         26    
     26         27    
     27         28    
     28         29    
     29         30    
     30         31    
     31         32    
     32         33    
     33         34    
     34         35    
     35         36    
     36         37    
     37         38    
     38         39    
     39         40    
     40         41    
     41         42    
     42         43    
     43         44    
     44         45    
     45         46    
     46         47    
     47         48    
     48         49    
     49         50    
     50         51    
     51         52    
     52         53    
     53         54    
     54         55    
     55         56    
     56         57    
     57         58    
     58         59    
     59         60    
     60         61    
     61         62    
     62         63    
     63         64    
     64         65    
     65         66    
     66         67    
     67         68    
     68         69    
     69         70    
     70         71    
     71         72    
     72         73    
     73         74    
     74         75    
     75         76    
     76         77    
     77         78    
     78         79    
     79         80    
     80         81    
     81         82    
     82         83    
     83         84    
     84         85    
     85         86    
     86         87    
     87         88    
     88         89    
     89         90    
     90         91    
     91         92    
     92         93    
     93         94    
     94         95    
     95         96    
     96         97    
     97         98    
     98         99    
     99        100    
    100        101    
    101        102    
    102        103    
    103        104    
    104        105    
    105        106    
    106        107    
    107        108    
    108        109    
    109        110    
    110        111    
    111        112    
    112        113    
    113        114    
    114        115    
    115        116    
    116        117    
    117        118    
    118        119    
    119        120    
    120               
 ---------------------



start timestep kper="1" kstp="1" mode="normal"


 BEGIN READING OUTPUT CONTROL FOR STRESS PERIOD 1
      ALL TIME STEPS WILL BE SAVED
      ALL TIME STEPS WILL BE SAVED
      ALL TIME STEPS WILL BE PRINTED

 END READING OUTPUT CONTROL FOR STRESS PERIOD 1


 PROCESSING STORAGE PERIOD DATA
 END PROCESSING STORAGE PERIOD DATA


 STRESS PERIOD 1 IS STEADY-STATE


 OPENED freyberg6.wel_stress_period_data_1.txt
 FILE TYPE:OPEN/CLOSE   UNIT 1056   STATUS:OLD                 
 FORMAT:FORMATTED              ACCESS:SEQUENTIAL          
 ACTION:READ                


 OPENED freyberg6.ghb_stress_period_data_1.txt
 FILE TYPE:OPEN/CLOSE   UNIT 1057   STATUS:OLD                 
 FORMAT:FORMATTED              ACCESS:SEQUENTIAL          
 ACTION:READ                

 --------------------------------------------------------------------
  GHB NO.    LAYER    ROW     COL        STAGE         CONDUCTANCE   
 --------------------------------------------------------------------
     1         1      120     16     33.5000000       333.333340     
     2         1      120     17     33.5000000       333.333340     
     3         1      120     18     33.5000000       333.333340     
     4         1      120     19     33.5000000       333.333340     
     5         1      120     20     33.5000000       333.333340     
     6         1      120     21     33.5000000       333.333340     
     7         1      120     22     33.5000000       333.333340     
     8         1      120     23     33.5000000       333.333340     
     9         1      120     24     33.5000000       333.333340     
     10        1      120     25     33.5000000       333.333340     
     11        1      120     26     33.5000000       333.333340     
     12        1      120     27     33.5000000       333.333340     
     13        1      120     28     33.5000000       333.333340     
     14        1      120     29     33.5000000       333.333340     
     15        1      120     30     33.5000000       333.333340     
     16        1      120     31     33.5000000       333.333340     
     17        1      120     32     33.5000000       333.333340     
     18        1      120     33     33.5000000       333.333340     
     19        1      120     34     33.5000000       333.333340     
     20        1      120     35     33.5000000       333.333340     
     21        1      120     36     33.5000000       333.333340     
     22        1      120     37     33.5000000       333.333340     
     23        1      120     38     33.5000000       333.333340     
     24        1      120     39     33.5000000       333.333340     
     25        1      120     40     33.5000000       333.333340     
     26        1      120     41     33.5000000       333.333340     
     27        1      120     42     33.5000000       333.333340     
     28        1      120     43     33.5000000       333.333340     
     29        1      120     44     33.5000000       333.333340     
     30        1      120     45     33.5000000       333.333340     
     31        1      120     46     33.5000000       333.333340     
     32        1      120     47     33.5000000       333.333340     
     33        1      120     48     33.5000000       333.333340     
 --------------------------------------------------------------------



 OPENED freyberg6.rcha_recharge_1.txt
 FILE TYPE:OPEN/CLOSE   UNIT 1058   STATUS:OLD                 
 FORMAT:FORMATTED              ACCESS:SEQUENTIAL          
 ACTION:READ                


 OPENED freyberg6.sfr_perioddata_1.txt
 FILE TYPE:OPEN/CLOSE   UNIT 1059   STATUS:OLD                 
 FORMAT:FORMATTED              ACCESS:SEQUENTIAL          
 ACTION:READ                


 SFR PACKAGE (SFR_1) DATA FOR PERIOD      1
 ---------------------------------------------------------------
   NUMBER   KEYWORD                  VALUE 1         VALUE 2    
 ---------------------------------------------------------------
     1      INFLOW               500.00000000000                
 ---------------------------------------------------------------



 SFR PACKAGE (SFR_1) CONNECTED REACH UPSTREAM FRACTION DATA
 ----------------------------------
            DOWNSTREAM             
   REACH     REACH 1    FRACTION 1 
 ----------------------------------
     1          2       1.0000     
     2          3       1.0000     
     3          4       1.0000     
     4          5       1.0000     
     5          6       1.0000     
     6          7       1.0000     
     7          8       1.0000     
     8          9       1.0000     
     9          10      1.0000     
     10         11      1.0000     
     11         12      1.0000     
     12         13      1.0000     
     13         14      1.0000     
     14         15      1.0000     
     15         16      1.0000     
     16         17      1.0000     
     17         18      1.0000     
     18         19      1.0000     
     19         20      1.0000     
     20         21      1.0000     
     21         22      1.0000     
     22         23      1.0000     
     23         24      1.0000     
     24         25      1.0000     
     25         26      1.0000     
     26         27      1.0000     
     27         28      1.0000     
     28         29      1.0000     
     29         30      1.0000     
     30         31      1.0000     
     31         32      1.0000     
     32         33      1.0000     
     33         34      1.0000     
     34         35      1.0000     
     35         36      1.0000     
     36         37      1.0000     
     37         38      1.0000     
     38         39      1.0000     
     39         40      1.0000     
     40         41      1.0000     
     41         42      1.0000     
     42         43      1.0000     
     43         44      1.0000     
     44         45      1.0000     
     45         46      1.0000     
     46         47      1.0000     
     47         48      1.0000     
     48         49      1.0000     
     49         50      1.0000     
     50         51      1.0000     
     51         52      1.0000     
     52         53      1.0000     
     53         54      1.0000     
     54         55      1.0000     
     55         56      1.0000     
     56         57      1.0000     
     57         58      1.0000     
     58         59      1.0000     
     59         60      1.0000     
     60         61      1.0000     
     61         62      1.0000     
     62         63      1.0000     
     63         64      1.0000     
     64         65      1.0000     
     65         66      1.0000     
     66         67      1.0000     
     67         68      1.0000     
     68         69      1.0000     
     69         70      1.0000     
     70         71      1.0000     
     71         72      1.0000     
     72         73      1.0000     
     73         74      1.0000     
     74         75      1.0000     
     75         76      1.0000     
     76         77      1.0000     
     77         78      1.0000     
     78         79      1.0000     
     79         80      1.0000     
     80         81      1.0000     
     81         82      1.0000     
     82         83      1.0000     
     83         84      1.0000     
     84         85      1.0000     
     85         86      1.0000     
     86         87      1.0000     
     87         88      1.0000     
     88         89      1.0000     
     89         90      1.0000     
     90         91      1.0000     
     91         92      1.0000     
     92         93      1.0000     
     93         94      1.0000     
     94         95      1.0000     
     95         96      1.0000     
     96         97      1.0000     
     97         98      1.0000     
     98         99      1.0000     
     99        100      1.0000     
    100        101      1.0000     
    101        102      1.0000     
    102        103      1.0000     
    103        104      1.0000     
    104        105      1.0000     
    105        106      1.0000     
    106        107      1.0000     
    107        108      1.0000     
    108        109      1.0000     
    109        110      1.0000     
    110        111      1.0000     
    111        112      1.0000     
    112        113      1.0000     
    113        114      1.0000     
    114        115      1.0000     
    115        116      1.0000     
    116        117      1.0000     
    117        118      1.0000     
    118        119      1.0000     
    119        120      1.0000     
    120                            
 ----------------------------------


 UBDSV1 SAVING     FLOW-JA-FACE ON UNIT   1052 AT TIME STEP      1, STRESS PERIOD      1
 UBDSV06 SAVING              GHB IN MODEL FREYBERG6        PACKAGE FREYBERG6       CONNECTED TO MODEL FREYBERG6        PACKAGE GHB-1            ON UNIT   1052 AT TIME STEP      1, STRESS PERIOD      1
 UBDSV06 SAVING              SFR IN MODEL FREYBERG6        PACKAGE FREYBERG6       CONNECTED TO MODEL FREYBERG6        PACKAGE SFR_1            ON UNIT   1052 AT TIME STEP      1, STRESS PERIOD      1

 GHB PACKAGE (GHB-1) FLOW RATES   PERIOD      1   STEP        1
 -----------------------------------------------
   NUMBER   CELLID                    RATE      
 -----------------------------------------------
     1      (1,120,16)           -31.421976     
     2      (1,120,17)           -31.402393     
     3      (1,120,18)           -31.395517     
     4      (1,120,19)           -31.344553     
     5      (1,120,20)           -31.334936     
     6      (1,120,21)           -31.314922     
     7      (1,120,22)           -31.240399     
     8      (1,120,23)           -31.180797     
     9      (1,120,24)           -31.056102     
     10     (1,120,25)           -30.904116     
     11     (1,120,26)           -30.740482     
     12     (1,120,27)           -30.586921     
     13     (1,120,28)           -30.394090     
     14     (1,120,29)           -30.203757     
     15     (1,120,30)           -30.001042     
     16     (1,120,31)           -29.776402     
     17     (1,120,32)           -29.583835     
     18     (1,120,33)           -29.380249     
     19     (1,120,34)           -29.165049     
     20     (1,120,35)           -28.963663     
     21     (1,120,36)           -28.764380     
     22     (1,120,37)           -28.596805     
     23     (1,120,38)           -28.435916     
     24     (1,120,39)           -28.286345     
     25     (1,120,40)           -28.143943     
     26     (1,120,41)           -28.005567     
     27     (1,120,42)           -27.890851     
     28     (1,120,43)           -27.796316     
     29     (1,120,44)           -27.716430     
     30     (1,120,45)           -27.649045     
     31     (1,120,46)           -27.571939     
     32     (1,120,47)           -28.444202     
     33     (1,120,48)           -27.696745     
 -----------------------------------------------




 HEAD WILL BE SAVED ON UNIT 1053 AT END OF TIME STEP    1, STRESS PERIOD    1


  SFR_1 BUDGET FOR ENTIRE MODEL AT END OF TIME STEP    1, STRESS PERIOD   1
  ------------------------------------------------------------------------------

     CUMULATIVE SFR_1      L**3       RATES FOR THIS TIME STEP      L**3/T
     ------------------                 ------------------------

           IN:                                      IN:
           ---                                      ---
                 GWF =       75914.9024                   GWF =        2530.4967
            RAINFALL =           0.0000              RAINFALL =           0.0000
         EVAPORATION =           0.0000           EVAPORATION =           0.0000
              RUNOFF =           0.0000                RUNOFF =           0.0000
          EXT-INFLOW =       15000.0000            EXT-INFLOW =         500.0000
         EXT-OUTFLOW =           0.0000           EXT-OUTFLOW =           0.0000
             STORAGE =           0.0000               STORAGE =           0.0000

            TOTAL IN =       90914.9024              TOTAL IN =        3030.4967

          OUT:                                     OUT:
          ----                                     ----
                 GWF =          46.3044                   GWF =           1.5435
            RAINFALL =           0.0000              RAINFALL =           0.0000
         EVAPORATION =           0.0000           EVAPORATION =           0.0000
              RUNOFF =           0.0000                RUNOFF =           0.0000
          EXT-INFLOW =           0.0000            EXT-INFLOW =           0.0000
         EXT-OUTFLOW =       90868.5981           EXT-OUTFLOW =        3028.9533
             STORAGE =           0.0000               STORAGE =           0.0000

           TOTAL OUT =       90914.9024             TOTAL OUT =        3030.4967

            IN - OUT =       1.4552E-11              IN - OUT =       4.5475E-13

 PERCENT DISCREPANCY =           0.00     PERCENT DISCREPANCY =           0.00



  VOLUME BUDGET FOR ENTIRE MODEL AT END OF TIME STEP    1, STRESS PERIOD   1
  ---------------------------------------------------------------------------------------------------

     CUMULATIVE VOLUME      L**3       RATES FOR THIS TIME STEP      L**3/T          PACKAGE NAME    
     ------------------                 ------------------------                     ----------------

           IN:                                      IN:
           ---                                      ---
              STO-SS =           0.0000                STO-SS =           0.0000     STORAGE                          
              STO-SY =           0.0000                STO-SY =           0.0000     STORAGE                          
                 WEL =           0.0000                   WEL =           0.0000     WEL_0                            
                 GHB =           0.0000                   GHB =           0.0000     GHB-1                            
                RCHA =      132162.5820                  RCHA =        4405.4194     RCHA_0                           
                 SFR =          46.3045                   SFR =           1.5435     SFR_1                            

            TOTAL IN =      132208.8864              TOTAL IN =        4406.9629

          OUT:                                     OUT:
          ----                                     ----
              STO-SS =           0.0000                STO-SS =           0.0000     STORAGE                          
              STO-SY =           0.0000                STO-SY =           0.0000     STORAGE                          
                 WEL =       27012.2889                   WEL =         900.4096     WEL_0                            
                 GHB =       29291.6905                   GHB =         976.3897     GHB-1                            
                RCHA =           0.0000                  RCHA =           0.0000     RCHA_0                           
                 SFR =       75914.9137                   SFR =        2530.4971     SFR_1                            

           TOTAL OUT =      132218.8932             TOTAL OUT =        4407.2964

            IN - OUT =         -10.0068              IN - OUT =          -0.3336

 PERCENT DISCREPANCY =          -0.01     PERCENT DISCREPANCY =          -0.01




         TIME SUMMARY AT END OF TIME STEP    1 IN STRESS PERIOD    1
                    SECONDS     MINUTES      HOURS       DAYS        YEARS
                    -----------------------------------------------------------
   TIME STEP LENGTH 2.59200E+06  43200.      720.00      30.000     8.21355E-02
 STRESS PERIOD TIME 2.59200E+06  43200.      720.00      30.000     8.21355E-02
         TOTAL TIME 2.59200E+06  43200.      720.00      30.000     8.21355E-02


end timestep


start timestep kper="2" kstp="1" mode="normal"


 END OF FILE DETECTED IN OUTPUT CONTROL.
 CURRENT OUTPUT CONTROL SETTINGS WILL BE 
 REPEATED UNTIL THE END OF THE SIMULATION.

 OUTPUT CONTROL FOR STRESS PERIOD 2 IS REPEATED USING SETTINGS FROM A PREVIOUS STRESS PERIOD.


 PROCESSING STORAGE PERIOD DATA
 END PROCESSING STORAGE PERIOD DATA


 STRESS PERIOD 2 IS TRANSIENT


 OPENED freyberg6.wel_stress_period_data_2.txt
 FILE TYPE:OPEN/CLOSE   UNIT 1060   STATUS:OLD                 
 FORMAT:FORMATTED              ACCESS:SEQUENTIAL          
 ACTION:READ                


 REUSING GHBS FROM LAST STRESS PERIOD

 OPENED freyberg6.rcha_recharge_2.txt
 FILE TYPE:OPEN/CLOSE   UNIT 1061   STATUS:OLD                 
 FORMAT:FORMATTED              ACCESS:SEQUENTIAL          
 ACTION:READ                

 ---------------------------------------------------------------


 UBDSV1 SAVING     FLOW-JA-FACE ON UNIT   1052 AT TIME STEP      1, STRESS PERIOD      2
 UBDSV06 SAVING              GHB IN MODEL FREYBERG6        PACKAGE FREYBERG6       CONNECTED TO MODEL FREYBERG6        PACKAGE GHB-1            ON UNIT   1052 AT TIME STEP      1, STRESS PERIOD      2
 UBDSV06 SAVING              SFR IN MODEL FREYBERG6        PACKAGE FREYBERG6       CONNECTED TO MODEL FREYBERG6        PACKAGE SFR_1            ON UNIT   1052 AT TIME STEP      1, STRESS PERIOD      2

 GHB PACKAGE (GHB-1) FLOW RATES   PERIOD      2   STEP        1
 -----------------------------------------------
   NUMBER   CELLID                    RATE      
 -----------------------------------------------
     1      (1,120,16)           -24.689712     
     2      (1,120,17)           -24.673988     
     3      (1,120,18)           -24.667446     
     4      (1,120,19)           -24.625346     
     5      (1,120,20)           -24.615044     
     6      (1,120,21)           -24.595781     
     7      (1,120,22)           -24.532750     
     8      (1,120,23)           -24.480745     
     9      (1,120,24)           -24.377864     
     10     (1,120,25)           -24.253115     
     11     (1,120,26)           -24.119168     
     12     (1,120,27)           -23.992470     
     13     (1,120,28)           -23.835432     
     14     (1,120,29)           -23.681503     
     15     (1,120,30)           -23.518570     
     16     (1,120,31)           -23.339021     
     17     (1,120,32)           -23.184960     
     18     (1,120,33)           -23.023478     
     19     (1,120,34)           -22.854493     
     20     (1,120,35)           -22.697929     
     21     (1,120,36)           -22.544854     
     22     (1,120,37)           -22.418036     
     23     (1,120,38)           -22.298120     
     24     (1,120,39)           -22.188883     
     25     (1,120,40)           -22.087230     
     26     (1,120,41)           -21.990906     
     27     (1,120,42)           -21.914452     
     28     (1,120,43)           -21.855055     
     29     (1,120,44)           -21.808401     
     30     (1,120,45)           -21.772575     
     31     (1,120,46)           -21.733119     
     32     (1,120,47)           -22.765290     
     33     (1,120,48)           -21.847114     
 -----------------------------------------------




 HEAD WILL BE SAVED ON UNIT 1053 AT END OF TIME STEP    1, STRESS PERIOD    2


  SFR_1 BUDGET FOR ENTIRE MODEL AT END OF TIME STEP    1, STRESS PERIOD   2
  ------------------------------------------------------------------------------

     CUMULATIVE SFR_1      L**3       RATES FOR THIS TIME STEP      L**3/T
     ------------------                 ------------------------

           IN:                                      IN:
           ---                                      ---
                 GWF =      133079.4695                   GWF =        1905.4856
            RAINFALL =           0.0000              RAINFALL =           0.0000
         EVAPORATION =           0.0000           EVAPORATION =           0.0000
              RUNOFF =           0.0000                RUNOFF =           0.0000
          EXT-INFLOW =       30000.0000            EXT-INFLOW =         500.0000
         EXT-OUTFLOW =           0.0000           EXT-OUTFLOW =           0.0000
             STORAGE =           0.0000               STORAGE =           0.0000

            TOTAL IN =      163079.4695              TOTAL IN =        2405.4856

          OUT:                                     OUT:
          ----                                     ----
                 GWF =          94.2643                   GWF =           1.5987
            RAINFALL =           0.0000              RAINFALL =           0.0000
         EVAPORATION =           0.0000           EVAPORATION =           0.0000
              RUNOFF =           0.0000                RUNOFF =           0.0000
          EXT-INFLOW =           0.0000            EXT-INFLOW =           0.0000
         EXT-OUTFLOW =      162985.2052           EXT-OUTFLOW =        2403.8869
             STORAGE =           0.0000               STORAGE =           0.0000

           TOTAL OUT =      163079.4695             TOTAL OUT =        2405.4856

            IN - OUT =      -2.9104E-11              IN - OUT =      -1.3642E-12

 PERCENT DISCREPANCY =          -0.00     PERCENT DISCREPANCY =          -0.00



  VOLUME BUDGET FOR ENTIRE MODEL AT END OF TIME STEP    1, STRESS PERIOD   2
  ---------------------------------------------------------------------------------------------------

     CUMULATIVE VOLUME      L**3       RATES FOR THIS TIME STEP      L**3/T          PACKAGE NAME    
     ------------------                 ------------------------                     ----------------

           IN:                                      IN:
           ---                                      ---
              STO-SS =         325.6153                STO-SS =          10.8538     STORAGE                          
              STO-SY =       11317.1649                STO-SY =         377.2388     STORAGE                          
                 WEL =           0.0000                   WEL =           0.0000     WEL_0                            
                 GHB =           0.0000                   GHB =           0.0000     GHB-1                            
                RCHA =      227652.9894                  RCHA =        3183.0136     RCHA_0                           
                 SFR =          94.2645                   SFR =           1.5987     SFR_1                            

            TOTAL IN =      239390.0340              TOTAL IN =        3572.7049

          OUT:                                     OUT:
          ----                                     ----
              STO-SS =           0.0000                STO-SS =           0.0000     STORAGE                          
              STO-SY =           0.0000                STO-SY =           0.0000     STORAGE                          
                 WEL =       54028.6026                   WEL =         900.5438     WEL_0                            
                 GHB =       52301.1761                   GHB =         766.9829     GHB-1                            
                RCHA =           0.0000                  RCHA =           0.0000     RCHA_0                           
                 SFR =      133079.4466                   SFR =        1905.4844     SFR_1                            

           TOTAL OUT =      239409.2252             TOTAL OUT =        3573.0111

            IN - OUT =         -19.1912              IN - OUT =          -0.3061

 PERCENT DISCREPANCY =          -0.01     PERCENT DISCREPANCY =          -0.01




         TIME SUMMARY AT END OF TIME STEP    1 IN STRESS PERIOD    2
                    SECONDS     MINUTES      HOURS       DAYS        YEARS
                    -----------------------------------------------------------
   TIME STEP LENGTH 2.59200E+06  43200.      720.00      30.000     8.21355E-02
 STRESS PERIOD TIME 2.59200E+06  43200.      720.00      30.000     8.21355E-02
         TOTAL TIME 5.18400E+06  86400.      1440.0      60.000     0.16427    


end timestep


start timestep kper="3" kstp="1" mode="normal"


 OUTPUT CONTROL FOR STRESS PERIOD 3 IS REPEATED USING SETTINGS FROM A PREVIOUS STRESS PERIOD.


 STRESS PERIOD 3 IS TRANSIENT


 OPENED freyberg6.wel_stress_period_data_3.txt
 FILE TYPE:OPEN/CLOSE   UNIT 1062   STATUS:OLD                 
 FORMAT:FORMATTED              ACCESS:SEQUENTIAL          
 ACTION:READ                


 REUSING GHBS FROM LAST STRESS PERIOD

 OPENED freyberg6.rcha_recharge_3.txt
 FILE TYPE:OPEN/CLOSE   UNIT 1063   STATUS:OLD                 
 FORMAT:FORMATTED              ACCESS:SEQUENTIAL          
 ACTION:READ                


 REUSING SFRS FROM LAST STRESS PERIOD
 UBDSV1 SAVING     FLOW-JA-FACE ON UNIT   1052 AT TIME STEP      1, STRESS PERIOD      3
 UBDSV06 SAVING              GHB IN MODEL FREYBERG6        PACKAGE FREYBERG6       CONNECTED TO MODEL FREYBERG6        PACKAGE GHB-1            ON UNIT   1052 AT TIME STEP      1, STRESS PERIOD      3
 UBDSV06 SAVING              SFR IN MODEL FREYBERG6        PACKAGE FREYBERG6       CONNECTED TO MODEL FREYBERG6        PACKAGE SFR_1            ON UNIT   1052 AT TIME STEP      1, STRESS PERIOD      3

 GHB PACKAGE (GHB-1) FLOW RATES   PERIOD      3   STEP        1
 -----------------------------------------------
   NUMBER   CELLID                    RATE      
 -----------------------------------------------
     1      (1,120,16)           -34.460202     
     2      (1,120,17)           -34.439496     
     3      (1,120,18)           -34.433680     
     4      (1,120,19)           -34.380517     
     5      (1,120,20)           -34.373460     
     6      (1,120,21)           -34.355787     
     7      (1,120,22)           -34.279249     
     8      (1,120,23)           -34.219777     
     9      (1,120,24)           -34.089043     
     10     (1,120,25)           -33.928935     
     11     (1,120,26)           -33.756371     
     12     (1,120,27)           -33.595426     
     13     (1,120,28)           -33.391219     
     14     (1,120,29)           -33.189147     
     15     (1,120,30)           -32.973158     
     16     (1,120,31)           -32.732780     
     17     (1,120,32)           -32.527555     
     18     (1,120,33)           -32.309612     
     19     (1,120,34)           -32.078062     
     20     (1,120,35)           -31.860780     
     21     (1,120,36)           -31.644755     
     22     (1,120,37)           -31.462823     
     23     (1,120,38)           -31.287196     
     24     (1,120,39)           -31.122931     
     25     (1,120,40)           -30.965274     
     26     (1,120,41)           -30.810541     
     27     (1,120,42)           -30.680925     
     28     (1,120,43)           -30.572468     
     29     (1,120,44)           -30.479025     
     30     (1,120,45)           -30.398144     
     31     (1,120,46)           -30.303483     
     32     (1,120,47)           -31.063266     
     33     (1,120,48)           -30.434199     
 -----------------------------------------------




 HEAD WILL BE SAVED ON UNIT 1053 AT END OF TIME STEP    1, STRESS PERIOD    3


  SFR_1 BUDGET FOR ENTIRE MODEL AT END OF TIME STEP    1, STRESS PERIOD   3
  ------------------------------------------------------------------------------

     CUMULATIVE SFR_1      L**3       RATES FOR THIS TIME STEP      L**3/T
     ------------------                 ------------------------

           IN:                                      IN:
           ---                                      ---
                 GWF =      216876.6353                   GWF =        2793.2389
            RAINFALL =           0.0000              RAINFALL =           0.0000
         EVAPORATION =           0.0000           EVAPORATION =           0.0000
              RUNOFF =           0.0000                RUNOFF =           0.0000
          EXT-INFLOW =       45000.0000            EXT-INFLOW =         500.0000
         EXT-OUTFLOW =           0.0000           EXT-OUTFLOW =           0.0000
             STORAGE =           0.0000               STORAGE =           0.0000

            TOTAL IN =      261876.6353              TOTAL IN =        3293.2389

          OUT:                                     OUT:
          ----                                     ----
                 GWF =         138.5111                   GWF =           1.4749
            RAINFALL =           0.0000              RAINFALL =           0.0000
         EVAPORATION =           0.0000           EVAPORATION =           0.0000
              RUNOFF =           0.0000                RUNOFF =           0.0000
          EXT-INFLOW =           0.0000            EXT-INFLOW =           0.0000
         EXT-OUTFLOW =      261738.1242           EXT-OUTFLOW =        3291.7640
             STORAGE =           0.0000               STORAGE =           0.0000

           TOTAL OUT =      261876.6353             TOTAL OUT =        3293.2389

            IN - OUT =      -5.8208E-11              IN - OUT =      -1.8190E-12

 PERCENT DISCREPANCY =          -0.00     PERCENT DISCREPANCY =          -0.00



  VOLUME BUDGET FOR ENTIRE MODEL AT END OF TIME STEP    1, STRESS PERIOD   3
  ---------------------------------------------------------------------------------------------------

     CUMULATIVE VOLUME      L**3       RATES FOR THIS TIME STEP      L**3/T          PACKAGE NAME    
     ------------------                 ------------------------                     ----------------

           IN:                                      IN:
           ---                                      ---
              STO-SS =         325.6153                STO-SS =           0.0000     STORAGE                          
              STO-SY =       11317.1649                STO-SY =           0.0000     STORAGE                          
                 WEL =           0.0000                   WEL =           0.0000     WEL_0                            
                 GHB =           0.0000                   GHB =           0.0000     GHB-1                            
                RCHA =      386719.5714                  RCHA =        5302.2194     RCHA_0                           
                 SFR =         138.5112                   SFR =           1.4749     SFR_1                            

            TOTAL IN =      398500.8628              TOTAL IN =        5303.6943

          OUT:                                     OUT:
          ----                                     ----
              STO-SS =         453.5376                STO-SS =          15.1179     STORAGE                          
              STO-SY =       15661.3112                STO-SY =         522.0437     STORAGE                          
                 WEL =       81043.3010                   WEL =         900.4899     WEL_0                            
                 GHB =       84479.1547                   GHB =        1072.5993     GHB-1                            
                RCHA =           0.0000                  RCHA =           0.0000     RCHA_0                           
                 SFR =      216876.6534                   SFR =        2793.2402     SFR_1                            

           TOTAL OUT =      398513.9579             TOTAL OUT =        5303.4911

            IN - OUT =         -13.0951              IN - OUT =           0.2032

 PERCENT DISCREPANCY =          -0.00     PERCENT DISCREPANCY =           0.00




         TIME SUMMARY AT END OF TIME STEP    1 IN STRESS PERIOD    3
                    SECONDS     MINUTES      HOURS       DAYS        YEARS
                    -----------------------------------------------------------
   TIME STEP LENGTH 2.59200E+06  43200.      720.00      30.000     8.21355E-02
 STRESS PERIOD TIME 2.59200E+06  43200.      720.00      30.000     8.21355E-02
         TOTAL TIME 7.77600E+06 1.29600E+05  2160.0      90.000     0.24641    


end timestep


start timestep kper="4" kstp="1" mode="normal"


 OUTPUT CONTROL FOR STRESS PERIOD 4 IS REPEATED USING SETTINGS FROM A PREVIOUS STRESS PERIOD.


 STRESS PERIOD 4 IS TRANSIENT


 OPENED freyberg6.wel_stress_period_data_4.txt
 FILE TYPE:OPEN/CLOSE   UNIT 1064   STATUS:OLD                 
 FORMAT:FORMATTED              ACCESS:SEQUENTIAL          
 ACTION:READ                


 REUSING GHBS FROM LAST STRESS PERIOD

 OPENED freyberg6.rcha_recharge_4.txt
 FILE TYPE:OPEN/CLOSE   UNIT 1065   STATUS:OLD                 
 FORMAT:FORMATTED              ACCESS:SEQUENTIAL          
 ACTION:READ                


 REUSING SFRS FROM LAST STRESS PERIOD
 UBDSV1 SAVING     FLOW-JA-FACE ON UNIT   1052 AT TIME STEP      1, STRESS PERIOD      4
 UBDSV06 SAVING              GHB IN MODEL FREYBERG6        PACKAGE FREYBERG6       CONNECTED TO MODEL FREYBERG6        PACKAGE GHB-1            ON UNIT   1052 AT TIME STEP      1, STRESS PERIOD      4
 UBDSV06 SAVING              SFR IN MODEL FREYBERG6        PACKAGE FREYBERG6       CONNECTED TO MODEL FREYBERG6        PACKAGE SFR_1            ON UNIT   1052 AT TIME STEP      1, STRESS PERIOD      4

 GHB PACKAGE (GHB-1) FLOW RATES   PERIOD      4   STEP        1
 -----------------------------------------------
   NUMBER   CELLID                    RATE      
 -----------------------------------------------
     1      (1,120,16)           -47.448444     
     2      (1,120,17)           -47.419272     
     3      (1,120,18)           -47.410870     
     4      (1,120,19)           -47.337338     
     5      (1,120,20)           -47.327908     
     6      (1,120,21)           -47.304141     
     7      (1,120,22)           -47.200425     
     8      (1,120,23)           -47.121283     
     9      (1,120,24)           -46.943434     
     10     (1,120,25)           -46.725437     
     11     (1,120,26)           -46.490122     
     12     (1,120,27)           -46.272025     
     13     (1,120,28)           -45.992919     
     14     (1,120,29)           -45.714189     
     15     (1,120,30)           -45.414747     
     16     (1,120,31)           -45.080961     
     17     (1,120,32)           -44.795432     
     18     (1,120,33)           -44.490270     
     19     (1,120,34)           -44.163369     
     20     (1,120,35)           -43.853236     
     21     (1,120,36)           -43.541389     
     22     (1,120,37)           -43.274868     
     23     (1,120,38)           -43.014031     
     24     (1,120,39)           -42.765873     
     25     (1,120,40)           -42.525106     
     26     (1,120,41)           -42.283059     
     27     (1,120,42)           -42.073718     
     28     (1,120,43)           -41.894450     
     29     (1,120,44)           -41.730953     
     30     (1,120,45)           -41.583494     
     31     (1,120,46)           -41.413791     
     32     (1,120,47)           -41.749376     
     33     (1,120,48)           -41.560740     
 -----------------------------------------------




 HEAD WILL BE SAVED ON UNIT 1053 AT END OF TIME STEP    1, STRESS PERIOD    4


  SFR_1 BUDGET FOR ENTIRE MODEL AT END OF TIME STEP    1, STRESS PERIOD   4
  ------------------------------------------------------------------------------

     CUMULATIVE SFR_1      L**3       RATES FOR THIS TIME STEP      L**3/T
     ------------------                 ------------------------

           IN:                                      IN:
           ---                                      ---
                 GWF =      338021.2950                   GWF =        4038.1553
            RAINFALL =           0.0000              RAINFALL =           0.0000
         EVAPORATION =           0.0000           EVAPORATION =           0.0000
              RUNOFF =           0.0000                RUNOFF =           0.0000
          EXT-INFLOW =       60000.0000            EXT-INFLOW =         500.0000
         EXT-OUTFLOW =           0.0000           EXT-OUTFLOW =           0.0000
             STORAGE =           0.0000               STORAGE =           0.0000

            TOTAL IN =      398021.2950              TOTAL IN =        4538.1553

          OUT:                                     OUT:
          ----                                     ----
                 GWF =         176.5283                   GWF =           1.2672
            RAINFALL =           0.0000              RAINFALL =           0.0000
[...]
          EXT-INFLOW =      345000.0000            EXT-INFLOW =         500.0000
         EXT-OUTFLOW =           0.0000           EXT-OUTFLOW =           0.0000
             STORAGE =           0.0000               STORAGE =           0.0000

            TOTAL IN =     2337696.9872              TOTAL IN =         825.5407

          OUT:                                     OUT:
          ----                                     ----
                 GWF =       11632.6809                   GWF =           1.3434
            RAINFALL =           0.0000              RAINFALL =           0.0000
         EVAPORATION =           0.0000           EVAPORATION =           0.0000
              RUNOFF =           0.0000                RUNOFF =           0.0000
          EXT-INFLOW =           0.0000            EXT-INFLOW =           0.0000
         EXT-OUTFLOW =     2326064.3062           EXT-OUTFLOW =         824.1974
             STORAGE =           0.0000               STORAGE =           0.0000

           TOTAL OUT =     2337696.9872             TOTAL OUT =         825.5407

            IN - OUT =       4.6566E-10              IN - OUT =      -1.1369E-13

 PERCENT DISCREPANCY =           0.00     PERCENT DISCREPANCY =          -0.00



  VOLUME BUDGET FOR ENTIRE MODEL AT END OF TIME STEP    1, STRESS PERIOD  23
  ---------------------------------------------------------------------------------------------------

     CUMULATIVE VOLUME      L**3       RATES FOR THIS TIME STEP      L**3/T          PACKAGE NAME    
     ------------------                 ------------------------                     ----------------

           IN:                                      IN:
           ---                                      ---
              STO-SS =        6098.0728                STO-SS =          21.1042     STORAGE                          
              STO-SY =      211250.5676                STO-SY =         756.0461     STORAGE                          
                 WEL =           0.0000                   WEL =           0.0000     WEL_0                            
                 GHB =           0.0000                   GHB =           0.0000     GHB-1                            
                RCHA =     3302610.2043                  RCHA =         688.1745     RCHA_0                           
                 SFR =       11632.6814                   SFR =           1.3434     SFR_1                            

            TOTAL IN =     3531591.5262              TOTAL IN =        1466.6681

          OUT:                                     OUT:
          ----                                     ----
              STO-SS =        4934.5122                STO-SS =           0.0000     STORAGE                          
              STO-SY =      170191.8081                STO-SY =           0.0000     STORAGE                          
                 WEL =      621318.5443                   WEL =         900.4374     WEL_0                            
                 GHB =      742480.2998                   GHB =         240.9942     GHB-1                            
                RCHA =           0.0000                  RCHA =           0.0000     RCHA_0                           
                 SFR =     1992697.1684                   SFR =         325.5401     SFR_1                            

           TOTAL OUT =     3531622.3326             TOTAL OUT =        1466.9717

            IN - OUT =         -30.8064              IN - OUT =          -0.3036

 PERCENT DISCREPANCY =          -0.00     PERCENT DISCREPANCY =          -0.02




         TIME SUMMARY AT END OF TIME STEP    1 IN STRESS PERIOD   23
                    SECONDS     MINUTES      HOURS       DAYS        YEARS
                    -----------------------------------------------------------
   TIME STEP LENGTH 2.59200E+06  43200.      720.00      30.000     8.21355E-02
 STRESS PERIOD TIME 2.59200E+06  43200.      720.00      30.000     8.21355E-02
         TOTAL TIME 5.96160E+07 9.93600E+05  16560.      690.00      1.8891    


end timestep


start timestep kper="24" kstp="1" mode="normal"


 OUTPUT CONTROL FOR STRESS PERIOD 24 IS REPEATED USING SETTINGS FROM A PREVIOUS STRESS PERIOD.


 STRESS PERIOD 24 IS TRANSIENT


 OPENED freyberg6.wel_stress_period_data_24.txt
 FILE TYPE:OPEN/CLOSE   UNIT 1104   STATUS:OLD                 
 FORMAT:FORMATTED              ACCESS:SEQUENTIAL          
 ACTION:READ                


 REUSING GHBS FROM LAST STRESS PERIOD

 OPENED freyberg6.rcha_recharge_24.txt
 FILE TYPE:OPEN/CLOSE   UNIT 1105   STATUS:OLD                 
 FORMAT:FORMATTED              ACCESS:SEQUENTIAL          
 ACTION:READ                


 REUSING SFRS FROM LAST STRESS PERIOD
 UBDSV1 SAVING     FLOW-JA-FACE ON UNIT   1052 AT TIME STEP      1, STRESS PERIOD     24
 UBDSV06 SAVING              GHB IN MODEL FREYBERG6        PACKAGE FREYBERG6       CONNECTED TO MODEL FREYBERG6        PACKAGE GHB-1            ON UNIT   1052 AT TIME STEP      1, STRESS PERIOD     24
 UBDSV06 SAVING              SFR IN MODEL FREYBERG6        PACKAGE FREYBERG6       CONNECTED TO MODEL FREYBERG6        PACKAGE SFR_1            ON UNIT   1052 AT TIME STEP      1, STRESS PERIOD     24

 GHB PACKAGE (GHB-1) FLOW RATES   PERIOD     24   STEP        1
 -----------------------------------------------
   NUMBER   CELLID                    RATE      
 -----------------------------------------------
     1      (1,120,16)           -1.6935602     
     2      (1,120,17)           -1.6898459     
     3      (1,120,18)           -1.6840457     
     4      (1,120,19)           -1.6736076     
     5      (1,120,20)           -1.6634533     
     6      (1,120,21)           -1.6507271     
     7      (1,120,22)           -1.6339459     
     8      (1,120,23)           -1.6171361     
     9      (1,120,24)           -1.5962096     
     10     (1,120,25)           -1.5732591     
     11     (1,120,26)           -1.5496435     
     12     (1,120,27)           -1.5267338     
     13     (1,120,28)           -1.5031634     
     14     (1,120,29)           -1.4816866     
     15     (1,120,30)           -1.4617428     
     16     (1,120,31)           -1.4436529     
     17     (1,120,32)           -1.4306500     
     18     (1,120,33)           -1.4214526     
     19     (1,120,34)           -1.4167745     
     20     (1,120,35)           -1.4183474     
     21     (1,120,36)           -1.4261105     
     22     (1,120,37)           -1.4417054     
     23     (1,120,38)           -1.4639968     
     24     (1,120,39)           -1.4932329     
     25     (1,120,40)           -1.5290668     
     26     (1,120,41)           -1.5706827     
     27     (1,120,42)           -1.6180189     
     28     (1,120,43)           -1.6696433     
     29     (1,120,44)           -1.7237450     
     30     (1,120,45)           -1.7782218     
     31     (1,120,46)           -1.8329748     
     32     (1,120,47)           -2.5314788     
     33     (1,120,48)           -1.9012427     
 -----------------------------------------------




 HEAD WILL BE SAVED ON UNIT 1053 AT END OF TIME STEP    1, STRESS PERIOD   24


  SFR_1 BUDGET FOR ENTIRE MODEL AT END OF TIME STEP    1, STRESS PERIOD  24
  ------------------------------------------------------------------------------

     CUMULATIVE SFR_1      L**3       RATES FOR THIS TIME STEP      L**3/T
     ------------------                 ------------------------

           IN:                                      IN:
           ---                                      ---
                 GWF =     1992697.0208                   GWF =       1.1220E-03
            RAINFALL =           0.0000              RAINFALL =           0.0000
         EVAPORATION =           0.0000           EVAPORATION =           0.0000
              RUNOFF =           0.0000                RUNOFF =           0.0000
          EXT-INFLOW =      360000.0000            EXT-INFLOW =         500.0000
         EXT-OUTFLOW =           0.0000           EXT-OUTFLOW =           0.0000
             STORAGE =           0.0000               STORAGE =           0.0000

            TOTAL IN =     2352697.0208              TOTAL IN =         500.0011

          OUT:                                     OUT:
          ----                                     ----
                 GWF =       19490.2727                   GWF =         261.9197
            RAINFALL =           0.0000              RAINFALL =           0.0000
         EVAPORATION =           0.0000           EVAPORATION =           0.0000
              RUNOFF =           0.0000                RUNOFF =           0.0000
          EXT-INFLOW =           0.0000            EXT-INFLOW =           0.0000
         EXT-OUTFLOW =     2333206.7482           EXT-OUTFLOW =         238.0814
             STORAGE =           0.0000               STORAGE =           0.0000

           TOTAL OUT =     2352697.0208             TOTAL OUT =         500.0011

            IN - OUT =           0.0000              IN - OUT =       1.1369E-13

 PERCENT DISCREPANCY =           0.00     PERCENT DISCREPANCY =           0.00



  VOLUME BUDGET FOR ENTIRE MODEL AT END OF TIME STEP    1, STRESS PERIOD  24
  ---------------------------------------------------------------------------------------------------

     CUMULATIVE VOLUME      L**3       RATES FOR THIS TIME STEP      L**3/T          PACKAGE NAME    
     ------------------                 ------------------------                     ----------------

           IN:                                      IN:
           ---                                      ---
              STO-SS =        6429.6309                STO-SS =          11.0519     STORAGE                          
              STO-SY =      223393.4032                STO-SY =         404.7612     STORAGE                          
                 WEL =           0.0000                   WEL =           0.0000     WEL_0                            
                 GHB =           0.0000                   GHB =           0.0000     GHB-1                            
                RCHA =     3310871.9329                  RCHA =         275.3910     RCHA_0                           
                 SFR =       19490.2939                   SFR =         261.9204     SFR_1                            

            TOTAL IN =     3560185.2610              TOTAL IN =         953.1245

          OUT:                                     OUT:
          ----                                     ----
              STO-SS =        4934.5122                STO-SS =           0.0000     STORAGE                          
              STO-SY =      170191.8081                STO-SY =           0.0000     STORAGE                          
                 WEL =      648329.2273                   WEL =         900.3561     WEL_0                            
                 GHB =      744073.5925                   GHB =          53.1098     GHB-1                            
                RCHA =           0.0000                  RCHA =           0.0000     RCHA_0                           
                 SFR =     1992697.2012                   SFR =       1.0936E-03     SFR_1                            

           TOTAL OUT =     3560226.3412             TOTAL OUT =         953.4670

            IN - OUT =         -41.0802              IN - OUT =          -0.3425

 PERCENT DISCREPANCY =          -0.00     PERCENT DISCREPANCY =          -0.04




         TIME SUMMARY AT END OF TIME STEP    1 IN STRESS PERIOD   24
                    SECONDS     MINUTES      HOURS       DAYS        YEARS
                    -----------------------------------------------------------
   TIME STEP LENGTH 2.59200E+06  43200.      720.00      30.000     8.21355E-02
 STRESS PERIOD TIME 2.59200E+06  43200.      720.00      30.000     8.21355E-02
         TOTAL TIME 6.22080E+07 1.03680E+06  17280.      720.00      1.9713    


end timestep


start timestep kper="25" kstp="1" mode="normal"


 OUTPUT CONTROL FOR STRESS PERIOD 25 IS REPEATED USING SETTINGS FROM A PREVIOUS STRESS PERIOD.


 STRESS PERIOD 25 IS TRANSIENT


 OPENED freyberg6.wel_stress_period_data_25.txt
 FILE TYPE:OPEN/CLOSE   UNIT 1106   STATUS:OLD                 
 FORMAT:FORMATTED              ACCESS:SEQUENTIAL          
 ACTION:READ                


 REUSING GHBS FROM LAST STRESS PERIOD

 OPENED freyberg6.rcha_recharge_25.txt
 FILE TYPE:OPEN/CLOSE   UNIT 1107   STATUS:OLD                 
 FORMAT:FORMATTED              ACCESS:SEQUENTIAL          
 ACTION:READ                


 REUSING SFRS FROM LAST STRESS PERIOD
 UBDSV1 SAVING     FLOW-JA-FACE ON UNIT   1052 AT TIME STEP      1, STRESS PERIOD     25
 UBDSV06 SAVING              GHB IN MODEL FREYBERG6        PACKAGE FREYBERG6       CONNECTED TO MODEL FREYBERG6        PACKAGE GHB-1            ON UNIT   1052 AT TIME STEP      1, STRESS PERIOD     25
 UBDSV06 SAVING              SFR IN MODEL FREYBERG6        PACKAGE FREYBERG6       CONNECTED TO MODEL FREYBERG6        PACKAGE SFR_1            ON UNIT   1052 AT TIME STEP      1, STRESS PERIOD     25

 GHB PACKAGE (GHB-1) FLOW RATES   PERIOD     25   STEP        1
 -----------------------------------------------
   NUMBER   CELLID                    RATE      
 -----------------------------------------------
     1      (1,120,16)           -3.4449862     
     2      (1,120,17)           -3.4417310     
     3      (1,120,18)           -3.4383235     
     4      (1,120,19)           -3.4288360     
     5      (1,120,20)           -3.4227824     
     6      (1,120,21)           -3.4143296     
     7      (1,120,22)           -3.3993272     
     8      (1,120,23)           -3.3855807     
     9      (1,120,24)           -3.3648828     
     10     (1,120,25)           -3.3411662     
     11     (1,120,26)           -3.3166769     
     12     (1,120,27)           -3.2934953     
     13     (1,120,28)           -3.2675578     
     14     (1,120,29)           -3.2440468     
     15     (1,120,30)           -3.2213921     
     16     (1,120,31)           -3.1989909     
     17     (1,120,32)           -3.1831301     
     18     (1,120,33)           -3.1702049     
     19     (1,120,34)           -3.1608855     
     20     (1,120,35)           -3.1581333     
     21     (1,120,36)           -3.1612151     
     22     (1,120,37)           -3.1733421     
     23     (1,120,38)           -3.1917542     
     24     (1,120,39)           -3.2171207     
     25     (1,120,40)           -3.2487679     
     26     (1,120,41)           -3.2857366     
     27     (1,120,42)           -3.3291453     
     28     (1,120,43)           -3.3772555     
     29     (1,120,44)           -3.4281856     
     30     (1,120,45)           -3.4796275     
     31     (1,120,46)           -3.5309853     
     32     (1,120,47)           -4.2973945     
     33     (1,120,48)           -3.6058643     
 -----------------------------------------------




 HEAD WILL BE SAVED ON UNIT 1053 AT END OF TIME STEP    1, STRESS PERIOD   25


  SFR_1 BUDGET FOR ENTIRE MODEL AT END OF TIME STEP    1, STRESS PERIOD  25
  ------------------------------------------------------------------------------

     CUMULATIVE SFR_1      L**3       RATES FOR THIS TIME STEP      L**3/T
     ------------------                 ------------------------

           IN:                                      IN:
           ---                                      ---
                 GWF =     1992860.9467                   GWF =           5.4642
            RAINFALL =           0.0000              RAINFALL =           0.0000
         EVAPORATION =           0.0000           EVAPORATION =           0.0000
              RUNOFF =           0.0000                RUNOFF =           0.0000
          EXT-INFLOW =      375000.0000            EXT-INFLOW =         500.0000
         EXT-OUTFLOW =           0.0000           EXT-OUTFLOW =           0.0000
             STORAGE =           0.0000               STORAGE =           0.0000

            TOTAL IN =     2367860.9467              TOTAL IN =         505.4642

          OUT:                                     OUT:
          ----                                     ----
                 GWF =       23646.4344                   GWF =         138.5387
            RAINFALL =           0.0000              RAINFALL =           0.0000
         EVAPORATION =           0.0000           EVAPORATION =           0.0000
              RUNOFF =           0.0000                RUNOFF =           0.0000
          EXT-INFLOW =           0.0000            EXT-INFLOW =           0.0000
         EXT-OUTFLOW =     2344214.5123           EXT-OUTFLOW =         366.9255
             STORAGE =           0.0000               STORAGE =           0.0000

           TOTAL OUT =     2367860.9467             TOTAL OUT =         505.4642

            IN - OUT =           0.0000              IN - OUT =      -5.6843E-14

 PERCENT DISCREPANCY =           0.00     PERCENT DISCREPANCY =          -0.00



  VOLUME BUDGET FOR ENTIRE MODEL AT END OF TIME STEP    1, STRESS PERIOD  25
  ---------------------------------------------------------------------------------------------------

     CUMULATIVE VOLUME      L**3       RATES FOR THIS TIME STEP      L**3/T          PACKAGE NAME    
     ------------------                 ------------------------                     ----------------

           IN:                                      IN:
           ---                                      ---
              STO-SS =        6429.6309                STO-SS =           0.0000     STORAGE                          
              STO-SY =      223393.4032                STO-SY =           0.0000     STORAGE                          
                 WEL =           0.0000                   WEL =           0.0000     WEL_0                            
                 GHB =           0.0000                   GHB =           0.0000     GHB-1                            
                RCHA =     3339222.5755                  RCHA =         945.0214     RCHA_0                           
                 SFR =       23646.4398                   SFR =         138.5382     SFR_1                            

            TOTAL IN =     3592692.0495              TOTAL IN =        1083.5596

          OUT:                                     OUT:
          ----                                     ----
              STO-SS =        4991.7954                STO-SS =           1.9094     STORAGE                          
              STO-SY =      172137.0131                STO-SY =          64.8402     STORAGE                          
                 WEL =      675341.5162                   WEL =         900.4096     WEL_0                            
                 GHB =      747392.2782                   GHB =         110.6229     GHB-1                            
                RCHA =           0.0000                  RCHA =           0.0000     RCHA_0                           
                 SFR =     1992861.1233                   SFR =           5.4641     SFR_1                            

           TOTAL OUT =     3592723.7260             TOTAL OUT =        1083.2462

            IN - OUT =         -31.6765              IN - OUT =           0.3135

 PERCENT DISCREPANCY =          -0.00     PERCENT DISCREPANCY =           0.03




         TIME SUMMARY AT END OF TIME STEP    1 IN STRESS PERIOD   25
                    SECONDS     MINUTES      HOURS       DAYS        YEARS
                    -----------------------------------------------------------
   TIME STEP LENGTH 2.59200E+06  43200.      720.00      30.000     8.21355E-02
 STRESS PERIOD TIME 2.59200E+06  43200.      720.00      30.000     8.21355E-02
         TOTAL TIME 6.48000E+07 1.08000E+06  18000.      750.00      2.0534    


end timestep

