                                   MODFLOW 6
                U.S. GEOLOGICAL SURVEY MODULAR HYDROLOGIC MODEL
                            VERSION 6.3.0 03/04/2022

   MODFLOW 6 compiled Mar 07 2022 13:50:09 with Intel(R) Fortran Intel(R) 64
   Compiler Classic for applications running on Intel(R) 64, Version 2021.5.0
                             Build 20211109_000000

This software has been approved for release by the U.S. Geological 
Survey (USGS). Although the software has been subjected to rigorous 
review, the USGS reserves the right to update the software as needed 
pursuant to further analysis and review. No warranty, expressed or 
implied, is made by the USGS or the U.S. Government as to the 
functionality of the software and related material nor shall the 
fact of release constitute any such warranty. Furthermore, the 
software is released on condition that neither the USGS nor the U.S. 
Government shall be held liable for any damages resulting from its 
authorized or unauthorized use. Also refer to the USGS Water 
Resources Software User Rights Notice for complete use, copyright, 
and distribution information.


As a work of the United States Government, this USGS product is 
in the public domain within the United States. You can copy, 
modify, distribute, and perform the work, even for commercial 
purposes, all without asking permission. Additionally, USGS 
waives copyright and related rights in the work worldwide 
through CC0 1.0 Universal Public Domain Dedication 
(https://creativecommons.org/publicdomain/zero/1.0/).

The following GNU Lesser General Public License (LGPL) libraries
are used in this USGS product:

    SPARSKIT version 2.0
      ilut, luson, and qsplit 
      (https://www-users.cse.umn.edu/~saad/software/SPARSKIT/)

    RCM - Reverse Cuthill McKee Ordering
      (https://people.math.sc.edu/Burkardt/f_src/rcm/rcm.html)

    BLAS - Basic Linear Algebra Subprograms Level 1
      (https://people.math.sc.edu/Burkardt/f_src/blas1_d/blas1_d.html)

    SPARSEKIT - Sparse Matrix Utility Package
      amux, dperm, dvperm, rperm, and cperm
      (https://people.sc.fsu.edu/~jburkardt/f77_src/sparsekit/sparsekit.html)

The following BSD-3 License libraries are used in this USGS product:

    Modern Fortran DAG Library
      Copyright (c) 2018, Jacob Williams
      All rights reserved.
      (https://github.com/jacobwilliams/daglib)

MODFLOW 6 compiler options: -Imac/obj_temp -O2 -no-heap-arrays -fpe0
-traceback -fpp -module mac/mod_temp/ -c -o mac/obj_temp/compilerversion.o

System command used to initiate simulation:
mf6

MODFLOW was compiled using uniform precision.

Real Variables
  KIND: 8
  TINY (smallest non-zero value):    2.225074-308
  HUGE (largest value):    1.797693+308
  PRECISION: 15
  BIT SIZE: 64

Integer Variables
  KIND: 4
  HUGE (largest value): 2147483647
  BIT SIZE: 32

Long Integer Variables
  KIND: 8
  HUGE (largest value): 9223372036854775807
  BIT SIZE: 64

Logical Variables
  KIND: 4
  BIT SIZE: 32
 

 OPENED mfsim.nam
 FILE TYPE:NAM   UNIT 1001   STATUS:OLD                 
 FORMAT:FORMATTED              ACCESS:SEQUENTIAL          
 ACTION:READ                

 # File generated by Flopy version 3.3.6 on 09/22/2023 at 19:14:14.

 READING SIMULATION OPTIONS
    SIMULATION WILL CONTINUE EVEN IF THERE IS NONCONVERGENCE.
 END OF SIMULATION OPTIONS

 READING SIMULATION TIMING

 OPENED freyberg6.tdis
 FILE TYPE:TDIS   UNIT 1002   STATUS:OLD                 
 FORMAT:FORMATTED              ACCESS:SEQUENTIAL          
 ACTION:READ                


 TDIS -- TEMPORAL DISCRETIZATION PACKAGE,
 VERSION 1 : 11/13/2014 - INPUT READ FROM UNIT 1002
 # File generated by Flopy version 3.3.6 on 09/22/2023 at 19:14:14.
 PROCESSING TDIS OPTIONS
    SIMULATION TIME UNIT IS DAYS
 END OF TDIS OPTIONS
 PROCESSING TDIS DIMENSIONS
   25 STRESS PERIOD(S) IN SIMULATION
 END OF TDIS DIMENSIONS
 PROCESSING TDIS PERIODDATA


 STRESS PERIOD     LENGTH       TIME STEPS     MULTIPLIER FOR DELT
 ----------------------------------------------------------------------------
        1         30.00000          1                    1.000
        2         30.00000          1                    1.000
        3         30.00000          1                    1.000
        4         30.00000          1                    1.000
        5         30.00000          1                    1.000
        6         30.00000          1                    1.000
        7         30.00000          1                    1.000
        8         30.00000          1                    1.000
        9         30.00000          1                    1.000
       10         30.00000          1                    1.000
       11         30.00000          1                    1.000
       12         30.00000          1                    1.000
       13         30.00000          1                    1.000
       14         30.00000          1                    1.000
       15         30.00000          1                    1.000
       16         30.00000          1                    1.000
       17         30.00000          1                    1.000
       18         30.00000          1                    1.000
       19         30.00000          1                    1.000
       20         30.00000          1                    1.000
       21         30.00000          1                    1.000
       22         30.00000          1                    1.000
       23         30.00000          1                    1.000
       24         30.00000          1                    1.000
       25         30.00000          1                    1.000
 END OF TDIS PERIODDATA
 END OF SIMULATION TIMING

 READING SIMULATION MODELS
    GWF6 model FREYBERG6 will be created as model 1
 END OF SIMULATION MODELS

 READING SIMULATION EXCHANGES
 END OF SIMULATION EXCHANGES

 READING SOLUTIONGROUP

 Creating solution: SLN_1           

 OPENED freyberg6.ims
 FILE TYPE:IMS   UNIT 1015   STATUS:OLD                 
 FORMAT:FORMATTED              ACCESS:SEQUENTIAL          
 ACTION:READ                

 END OF SIMULATION SOLUTIONGROUP

PROCESSING MODEL CONNECTIONS

 IMS -- ITERATIVE MODEL SOLUTION PACKAGE, VERSION 6, 4/28/2017
         INPUT READ FROM UNIT 1015
 # File generated by Flopy version 3.3.6 on 09/22/2023 at 19:14:14.

 PROCESSING IMS OPTIONS
 SIMPLE OPTION:
 DEFAULT SOLVER INPUT VALUES FOR FAST SOLUTIONS
 END OF IMS OPTIONS

 PROCESSING IMS NONLINEAR
 END OF IMS NONLINEAR DATA
 **UNDER-RELAXATION WILL BE USED***
 
 ***IMS LINEAR SOLVER WILL BE USED***

 IMSLINEAR -- UNSTRUCTURED LINEAR SOLUTION PACKAGE, VERSION 8, 04/28/2017

 PROCESSING LINEAR DATA
 END OF LINEAR DATA
 
 An asymmetric matrix will be solved

 OUTER ITERATION CONVERGENCE CRITERION    (DVCLOSE) =    0.100000E-04
 MAXIMUM NUMBER OF OUTER ITERATIONS        (MXITER) = 100
 SOLVER PRINTOUT INDEX                     (IPRIMS) = 1
 NONLINEAR ITERATION METHOD            (NONLINMETH) = 3
 LINEAR SOLUTION METHOD                   (LINMETH) = 1
 UNDER-RELAXATION WEIGHT REDUCTION FACTOR   (THETA) =    0.850000E+00
 UNDER-RELAXATION WEIGHT INCREASE INCREMENT (KAPPA) =    0.100000E-04
 UNDER-RELAXATION PREVIOUS HISTORY FACTOR   (GAMMA) =    0.000000E+00
 UNDER-RELAXATION MOMENTUM TERM         (AMOMENTUM) =    0.100000E+00
 MAXIMUM NUMBER OF BACKTRACKS            (NUMTRACK) = 50
 BACKTRACKING TOLERANCE FACTOR               (BTOL) =    0.110000E+01
 BACKTRACKING REDUCTION FACTOR             (BREDUC) =    0.700000E+00
 BACKTRACKING RESIDUAL LIMIT              (RES_LIM) =    0.100000E+03

       SOLUTION BY THE BICONJUGATE-GRADIENT STABILIZED METHOD
 ------------------------------------------------------------------
 MAXIMUM OF 100 CALLS OF SOLUTION ROUTINE
 MAXIMUM OF 50 INTERNAL ITERATIONS PER CALL TO SOLUTION ROUTINE
 LINEAR ACCELERATION METHOD            = BCGS      
 MATRIX PRECONDITIONING TYPE           = INCOMPLETE LUT      
 MATRIX SCALING APPROACH               = NO SCALING          
 MATRIX REORDERING APPROACH            = RCM ORDERING             
 NUMBER OF ORTHOGONALIZATIONS          = 2
 HEAD CHANGE CRITERION FOR CLOSURE     =    0.10000E-05
 RESIDUAL CHANGE CRITERION FOR CLOSURE =    0.10000E+00
 RESIDUAL CONVERGENCE OPTION           = 0
 RESIDUAL CONVERGENCE NORM             = INFINITY NORM   
 RELAXATION FACTOR                     =    0.00000E+00
 NUMBER OF LEVELS                      =              1
 DROP TOLERANCE                        =    0.10000E-02


 
    Solving:  Stress period:     1    Time step:     1
 
1
                            STRESS PERIOD NO. 1, LENGTH =   30.00000    
                            -----------------------------------------------
                            NUMBER OF TIME STEPS = 1
                            MULTIPLIER FOR DELT =     1.000
                            INITIAL TIME STEP SIZE =   30.00000    



 PSEUDO-TRANSIENT CONTINUATION WILL BE APPLIED TO MODEL 1 ("FREYBERG6") DURING THIS TIME STEP

 SLN_1 OUTER ITERATION SUMMARY
 ----------------------------------------------------------------------------------------------------------------------------------------------------------------
                                OUTER      INNER  BACKTRACK  BACKTRACK        INCOMING        OUTGOING                    STEP   MAXIMUM CHANGE MODEL-(CELLID) OR
 OUTER ITERATION STEP       ITERATION  ITERATION       FLAG ITERATIONS        RESIDUAL        RESIDUAL  MAXIMUM CHANGE SUCCESS             MODEL-PACKAGE-(NUMBER)
 ----------------------------------------------------------------------------------------------------------------------------------------------------------------
 Backtracking                       1                     0          0       3531526.2       3531526.2                       *                                   
 Model                              1         20                                                             566.01652                           1_GWF-(3,118,46)
 Backtracking                       2                     0          0       624132.75       624132.75                       *                                   
 Model                              2         42                                                             507.17038                           1_GWF-(2,120,46)
 Backtracking                       3                     0          0       145236.02       145236.02                       *                                   
 Model                              3         50                                                             489.16652                           1_GWF-(1,119,48)
 Backtracking                       4                     0          0       84158.689       84158.689                       *                                   
 Model                              4         50                                                             189.44957                           1_GWF-(1,119,48)
 Backtracking                       5                     0          0       39915.608       39915.608                       *                                   
 Model                              5         50                                                             53.323968                           1_GWF-(1,119,48)
 Backtracking                       6                     0          0       14033.504       14033.504                       *                                   
 Model                              6         50                                                             13.370476                           1_GWF-(1,117,47)
 Backtracking                       7                     0          0       9917.6292       9917.6292                       *                                   
 Model                              7         50                                                             3.6359481                           1_GWF-(1,117,50)
 Backtracking                       8                     0          0       8179.3546       8179.3546                       *                                   
 Model                              8         50                                                             1.5099572                           1_GWF-(1,110,57)
 Backtracking                       9                     0          0       5688.8891       5688.8891                       *                                   
 Model                              9         50                                                            0.84633173                           1_GWF-(1,110,57)
 Backtracking                      10                     0          0       4671.7812       4671.7812                       *                                   
 Model                             10         50                                                           -0.55189362                             1_GWF-(1,35,1)
 Backtracking                      11                     0          0       2653.5947       2653.5947                       *                                   
 Model                             11         50                                                           -0.45440200                             1_GWF-(1,30,1)
 Backtracking                      12                     0          0       2003.9930       2003.9930                       *                                   
 Model                             12         50                                                           -0.29704793                             1_GWF-(1,27,1)
 Backtracking                      13                     0          0       1363.9176       1363.9176                       *                                   
 Model                             13         50                                                           -0.20655298                              1_GWF-(1,6,1)
 Backtracking                      14                     0          0       1051.4577       1051.4577                       *                                   
 Model                             14         50                                                           -0.11510389                              1_GWF-(1,3,2)
 Backtracking                      15                     0          0       790.25914       790.25914                       *                                   
 Model                             15         50                                                       -6.07855654E-02                             1_GWF-(1,32,2)
 Backtracking                      16                     0          0       522.50446       522.50446                       *                                   
 Model                             16         50                                                       -3.69026797E-02                             1_GWF-(1,1,38)
 Backtracking                      17                     0          0       361.11728       361.11728                       *                                   
 Model                             17         50                                                       -2.32078936E-02                             1_GWF-(1,29,1)
 Backtracking                      18                     0          0       199.37563       199.37563                       *                                   
 Model                             18         50                                                       -1.62243493E-02                             1_GWF-(1,61,2)
 Backtracking                      19                     0          0       143.72500       143.72500                       *                                   
 Model                             19         50                                                       -9.99929614E-03                             1_GWF-(1,29,1)
 Backtracking                      20                     0          0       64.412420       64.412420                       *                                   
 Model                             20         50                                                       -5.87741575E-03                             1_GWF-(2,62,2)
 Backtracking                      21                     0          0       47.677256       47.677256                       *                                   
 Model                             21         50                                                       -5.33590728E-03                             1_GWF-(1,31,2)
 Backtracking                      22                     0          0       32.683217       32.683217                       *                                   
 Model                             22         50                                                       -3.91813184E-03                             1_GWF-(1,61,2)
 Backtracking                      23                     0          0       24.812501       24.812501                       *                                   
 Model                             23         50                                                       -2.09047216E-03                             1_GWF-(1,31,1)
 Backtracking                      24                     0          0       11.450066       11.450066                       *                                   
 Model                             24         50                                                       -2.13453188E-03                             1_GWF-(1,61,2)
 Backtracking                      25                     0          1       14.349907       13.019297                                                           
 Model                             25         48                                                       -1.11345457E-03                             1_GWF-(1,33,1)
 Backtracking                      26                     0          0       7.2175526       7.2175526                       *                                   
 Model                             26         23                                                       -2.87535823E-04                            1_GWF-(3,85,24)
 Backtracking                      27                     0          0       2.5948850       2.5948850                       *                                   
 Model                             27         17                                                       -1.36048996E-04                            1_GWF-(3,85,24)
 Backtracking                      28                     0          0       1.0565562       1.0565562                       *                                   
 Model                             28         15                                                       -7.32673775E-05                            1_GWF-(1,55,38)
 Backtracking                      29                     0          0      0.53052584      0.53052584                       *                                   
 Model                             29         22                                                       -4.51347960E-04                             1_GWF-(2,65,1)
 Backtracking                      30                     0          1       2.2509492       1.6812729                                                           
 Model                             30         14                                                       -4.83379712E-05                             1_GWF-(1,34,2)
 Backtracking                      31                     0          0      0.61630326      0.61630326                       *                                   
 Model                             31         50                                                       -4.71446495E-04                             1_GWF-(2,36,2)
 Backtracking                      32                     0          1       1.9799698       1.4018020                                                           
 Model                             32         24                                                       -6.40600382E-05                             1_GWF-(1,32,3)
 Backtracking                      33                     0          0      0.57759700      0.57759700                       *                                   
 Model                             33         36                                                       -2.33468763E-04                             1_GWF-(1,67,1)
 Backtracking                      34                     0          1       1.1616380      0.91171299                                                           
 Model                             34         10                                                       -1.86106338E-05                             1_GWF-(3,59,7)
 Backtracking                      35                     0          0      0.39039116      0.39039116                       *                                   
 Model                             35          5                                                       -8.46366869E-06       *                    1_GWF-(1,59,12)
 ----------------------------------------------------------------------------------------------------------------------------------------------------------------


 35 CALLS TO NUMERICAL SOLUTION IN TIME STEP 1 STRESS PERIOD 1
 1426 TOTAL ITERATIONS
 
    Solving:  Stress period:     2    Time step:     1
 
1
                            STRESS PERIOD NO. 2, LENGTH =   30.00000    
                            -----------------------------------------------
                            NUMBER OF TIME STEPS = 1
                            MULTIPLIER FOR DELT =     1.000
                            INITIAL TIME STEP SIZE =   30.00000    

 SLN_1 OUTER ITERATION SUMMARY
 ----------------------------------------------------------------------------------------------------------------------------------------------------------------
                                OUTER      INNER  BACKTRACK  BACKTRACK        INCOMING        OUTGOING                    STEP   MAXIMUM CHANGE MODEL-(CELLID) OR
 OUTER ITERATION STEP       ITERATION  ITERATION       FLAG ITERATIONS        RESIDUAL        RESIDUAL  MAXIMUM CHANGE SUCCESS             MODEL-PACKAGE-(NUMBER)
 ----------------------------------------------------------------------------------------------------------------------------------------------------------------
 Backtracking                       1                     0          0       15.335663       15.335663                       *                                   
 Model                              1         50                                                           -0.39079586                             1_GWF-(1,28,1)
 Backtracking                       2                     0          0       4.6789890       4.6789890                       *                                   
 Model                              2         50                                                       -3.72391293E-02                             1_GWF-(3,55,3)
 Backtracking                       3                     0          0      0.91803175      0.91803175                       *                                   
 Model                              3         50                                                       -1.47255031E-02                             1_GWF-(3,32,2)
 Backtracking                       4                     0          1       22.581914       15.811678                                                           
 Model                              4         50                                                       -4.98394096E-03                              1_GWF-(3,7,1)
 Backtracking                       5                     0          0       11.405912       11.405912                       *                                   
 Model                              5         50                                                       -2.23900105E-03                              1_GWF-(3,7,1)
 Backtracking                       6                     0          0       4.8793708       4.8793708                       *                                   
 Model                              6         23                                                       -2.80623063E-04                            1_GWF-(3,15,21)
 Backtracking                       7                     0          0      0.66567849      0.66567849                       *                                   
 Model                              7         50                                                       -6.52214920E-04                             1_GWF-(3,60,2)
 Backtracking                       8                     0          1       1.7400891       1.2474525                                                           
 Model                              8         20                                                       -9.88668944E-05                             1_GWF-(1,43,3)
 Backtracking                       9                     0          0      0.26072672      0.26072672                       *                                   
 Model                              9         42                                                       -3.77145290E-04                             1_GWF-(3,24,1)
 Backtracking                      10                     0          1      0.74091310      0.56365754                                                           
 Model                             10         26                                                       -5.89317335E-05                             1_GWF-(1,43,3)
 Backtracking                      11                     0          0      0.20135324      0.20135324                       *                                   
 Model                             11         34                                                       -1.50726296E-04                             1_GWF-(1,43,5)
 Backtracking                      12                     0          1      0.44601292      0.36196977                                                           
 Model                             12         13                                                       -1.90091848E-05                            1_GWF-(3,64,11)
 Backtracking                      13                     0          0  8.83402640E-02  8.83402640E-02                       *                                   
 Model                             13          6                                                       -6.22610261E-06       *                   1_GWF-(2,100,36)
 ----------------------------------------------------------------------------------------------------------------------------------------------------------------


 13 CALLS TO NUMERICAL SOLUTION IN TIME STEP 1 STRESS PERIOD 2
 464 TOTAL ITERATIONS
 
    Solving:  Stress period:     3    Time step:     1
 
1
                            STRESS PERIOD NO. 3, LENGTH =   30.00000    
                            -----------------------------------------------
                            NUMBER OF TIME STEPS = 1
                            MULTIPLIER FOR DELT =     1.000
                            INITIAL TIME STEP SIZE =   30.00000    

 SLN_1 OUTER ITERATION SUMMARY
 ----------------------------------------------------------------------------------------------------------------------------------------------------------------
                                OUTER      INNER  BACKTRACK  BACKTRACK        INCOMING        OUTGOING                    STEP   MAXIMUM CHANGE MODEL-(CELLID) OR
 OUTER ITERATION STEP       ITERATION  ITERATION       FLAG ITERATIONS        RESIDUAL        RESIDUAL  MAXIMUM CHANGE SUCCESS             MODEL-PACKAGE-(NUMBER)
 ----------------------------------------------------------------------------------------------------------------------------------------------------------------
 Backtracking                       1                     0          0       21.890329       21.890329                       *                                   
 Model                              1         50                                                            0.49045981                              1_GWF-(1,1,1)
 Backtracking                       2                     0          0       8.6466668       8.6466668                       *                                   
 Model                              2         50                                                        5.17357289E-02                             1_GWF-(2,59,2)
 Backtracking                       3                     0          0       2.8333096       2.8333096                       *                                   
 Model                              3         50                                                        4.47682024E-02                             1_GWF-(3,37,3)
 Backtracking                       4                     0          1       38.796625       27.165235                                                           
 Model                              4         50                                                        1.56987410E-02                             1_GWF-(3,6,10)
 Backtracking                       5                     0          1       31.960488       30.082420                                                           
 Model                              5         50                                                        9.22725585E-03                              1_GWF-(3,3,9)
 Backtracking                       6                     0          0       20.117356       20.117356                       *                                   
 Model                              6         50                                                        3.63232154E-03                              1_GWF-(3,3,9)
 Backtracking                       7                     0          0       10.359859       10.359859                       *                                   
 Model                              7         19                                                        5.71442462E-04                              1_GWF-(2,3,9)
 Backtracking                       8                     0          0       1.3020789       1.3020789                       *                                   
 Model                              8         50                                                        1.31359193E-03                             1_GWF-(3,1,21)
 Backtracking                       9                     0          1       2.5336274       1.8503540                                                           
 Model                              9         24                                                        2.80048959E-04                             1_GWF-(3,1,26)
 Backtracking                      10                     0          0      0.69356871      0.69356871                       *                                   
 Model                             10         50                                                        6.85628479E-04                              1_GWF-(3,1,9)
 Backtracking                      11                     0          1       1.4070372       1.1578190                                                           
 Model                             11         42                                                        3.15120393E-04                             1_GWF-(3,1,26)
 Backtracking                      12                     0          0      0.72000316      0.72000316                       *                                   
 Model                             12         29                                                        7.55438502E-05                             1_GWF-(3,3,26)
 Backtracking                      13                     0          0      0.25702947      0.25702947                       *                                   
 Model                             13         43                                                        1.48623619E-04                             1_GWF-(3,3,26)
 Backtracking                      14                     1          1      0.30452052      0.26183255                                                           
 Model                             14         17                                                        2.27705466E-05                            1_GWF-(3,60,60)
 Backtracking                      15                     0          0  8.74045992E-02  8.74045992E-02                       *                                   
 Model                             15          7                                                        7.14932758E-06       *                    1_GWF-(2,61,55)
 ----------------------------------------------------------------------------------------------------------------------------------------------------------------


 15 CALLS TO NUMERICAL SOLUTION IN TIME STEP 1 STRESS PERIOD 3
 581 TOTAL ITERATIONS
 
    Solving:  Stress period:     4    Time step:     1
 
1
                            STRESS PERIOD NO. 4, LENGTH =   30.00000    
                            -----------------------------------------------
                            NUMBER OF TIME STEPS = 1
                            MULTIPLIER FOR DELT =     1.000
                            INITIAL TIME STEP SIZE =   30.00000    

 SLN_1 OUTER ITERATION SUMMARY
 ----------------------------------------------------------------------------------------------------------------------------------------------------------------
                                OUTER      INNER  BACKTRACK  BACKTRACK        INCOMING        OUTGOING                    STEP   MAXIMUM CHANGE MODEL-(CELLID) OR
 OUTER ITERATION STEP       ITERATION  ITERATION       FLAG ITERATIONS        RESIDUAL        RESIDUAL  MAXIMUM CHANGE SUCCESS             MODEL-PACKAGE-(NUMBER)
 ----------------------------------------------------------------------------------------------------------------------------------------------------------------
 Backtracking                       1                     0          0       30.272242       30.272242                       *                                   
 Model                              1         50                                                            0.85723437                             1_GWF-(1,30,1)
 Backtracking                       2                     0          0       11.393461       11.393461                       *                                   
 Model                              2         50                                                        5.32523957E-02                             1_GWF-(3,58,3)
 Backtracking                       3                     0          0       1.7307052       1.7307052                       *                                   
 Model                              3         50                                                        1.90744145E-02                             1_GWF-(3,40,5)
 Backtracking                       4                     0          1       25.181608       17.641228                                                           
 Model                              4         50                                                        9.15526576E-03                             1_GWF-(3,24,1)
 Backtracking                       5                     0          0       18.855672       18.855672                       *                                   
 Model                              5         50                                                        2.28177237E-03                             1_GWF-(3,25,9)
 Backtracking                       6                     0          0       4.1782565       4.1782565                       *                                   
 Model                              6         36                                                        1.08213380E-03                             1_GWF-(3,24,1)
 Backtracking                       7                     0          0       2.0056479       2.0056479                       *                                   
 Model                              7         50                                                        9.28052978E-04                              1_GWF-(2,1,1)
 Backtracking                       8                     0          0       1.6876353       1.6876353                       *                                   
 Model                              8         19                                                        1.25334041E-04                             1_GWF-(3,29,1)
 Backtracking                       9                     0          0      0.23550400      0.23550400                       *                                   
 Model                              9         19                                                        1.61917232E-04                             1_GWF-(2,24,2)
 Backtracking                      10                     0          0      0.17936099      0.17936099                       *                                   
 Model                             10         19                                                        1.07458751E-04                              1_GWF-(2,1,2)
 Backtracking                      11                     0          0      0.17773579      0.17773579                       *                                   
 Model                             11         18                                                        4.67734250E-05                             1_GWF-(1,95,1)
 Backtracking                      12                     0          0  9.53488653E-02  9.53488653E-02                       *                                   
 Model                             12         19                                                        4.69432777E-05                            1_GWF-(1,46,11)
 Backtracking                      13                     0          1      0.16309269      0.13146764                                                           
 Model                             13         20                                                        8.93907799E-05                             1_GWF-(2,27,3)
 Backtracking                      14                     0          1      0.27704106      0.23108014                                                           
 Model                             14         14                                                        1.83128954E-05                             1_GWF-(1,45,5)
 Backtracking                      15                     0          0  5.15896059E-02  5.15896059E-02                       *                                   
 Model                             15         16                                                        8.28585570E-05                             1_GWF-(3,14,2)
 Backtracking                      16                     0          1      0.26394505      0.19132167                                                           
 Model                             16         10                                                       -9.94224812E-06       *                     1_GWF-(3,49,2)
 ----------------------------------------------------------------------------------------------------------------------------------------------------------------


 16 CALLS TO NUMERICAL SOLUTION IN TIME STEP 1 STRESS PERIOD 4
 490 TOTAL ITERATIONS
 
    Solving:  Stress period:     5    Time step:     1
 
1
                            STRESS PERIOD NO. 5, LENGTH =   30.00000    
                            -----------------------------------------------
                            NUMBER OF TIME STEPS = 1
                            MULTIPLIER FOR DELT =     1.000
                            INITIAL TIME STEP SIZE =   30.00000    

 SLN_1 OUTER ITERATION SUMMARY
 ----------------------------------------------------------------------------------------------------------------------------------------------------------------
                                OUTER      INNER  BACKTRACK  BACKTRACK        INCOMING        OUTGOING                    STEP   MAXIMUM CHANGE MODEL-(CELLID) OR
 OUTER ITERATION STEP       ITERATION  ITERATION       FLAG ITERATIONS        RESIDUAL        RESIDUAL  MAXIMUM CHANGE SUCCESS             MODEL-PACKAGE-(NUMBER)
 ----------------------------------------------------------------------------------------------------------------------------------------------------------------
 Backtracking                       1                     0          0       24.011978       24.011978                       *                                   
 Model                              1         50                                                            0.76126900                             1_GWF-(1,32,1)
 Backtracking                       2                     0          0       7.7364711       7.7364711                       *                                   
 Model                              2         50                                                       -3.26791837E-02                              1_GWF-(2,1,1)
 Backtracking                       3                     0          0       1.1140181       1.1140181                       *                                   
 Model                              3         50                                                        7.04355653E-03                             1_GWF-(3,85,1)
 Backtracking                       4                     0          1       19.190001       13.420410                                                           
 Model                              4         12                                                        8.79844112E-04                           1_GWF-(3,100,11)
 Backtracking                       5                     0          0       3.3545231       3.3545231                       *                                   
 Model                              5         50                                                        3.42942021E-03                           1_GWF-(3,101,10)
 Backtracking                       6                     0          1       11.388085       8.1720104                                                           
 Model                              6         50                                                        2.00085195E-03                             1_GWF-(2,27,6)
 Backtracking                       7                     0          0       6.8973420       6.8973420                       *                                   
 Model                              7         25                                                        4.89505254E-04                             1_GWF-(2,27,6)
 Backtracking                       8                     0          0       1.8412969       1.8412969                       *                                   
 Model                              8         49                                                        1.23603679E-03                             1_GWF-(2,27,6)
 Backtracking                       9                     0          1       2.8255622       2.2279655                                                           
 Model                              9         14                                                        2.41101093E-04                             1_GWF-(2,27,6)
 Backtracking                      10                     0          0      0.62435189      0.62435189                       *                                   
 Model                             10         14                                                        1.02828623E-04                             1_GWF-(3,27,7)
 Backtracking                      11                     0          0      0.22784042      0.22784042                       *                                   
 Model                             11         14                                                        8.93580127E-05                             1_GWF-(2,27,9)
 Backtracking                      12                     0          0      0.14209711      0.14209711                       *                                   
 Model                             12         49                                                        3.54494291E-04                             1_GWF-(3,26,1)
 Backtracking                      13                     0          1      0.72335794      0.54018507                                                           
 Model                             13         21                                                        4.21625917E-05                            1_GWF-(2,37,10)
 Backtracking                      14                     0          0      0.17328357      0.17328357                       *                                   
 Model                             14         15                                                        2.31388402E-05                            1_GWF-(1,36,10)
 Backtracking                      15                     0          0  6.81827450E-02  6.81827450E-02                       *                                   
 Model                             15         19                                                        1.27065369E-04                             1_GWF-(2,26,1)
 Backtracking                      16                     0          1      0.15661448      0.12164310                                                           
 Model                             16          6                                                        7.51527396E-06       *                    1_GWF-(2,12,38)
 ----------------------------------------------------------------------------------------------------------------------------------------------------------------


 16 CALLS TO NUMERICAL SOLUTION IN TIME STEP 1 STRESS PERIOD 5
 488 TOTAL ITERATIONS
 
    Solving:  Stress period:     6    Time step:     1
 
1
                            STRESS PERIOD NO. 6, LENGTH =   30.00000    
                            -----------------------------------------------
                            NUMBER OF TIME STEPS = 1
                            MULTIPLIER FOR DELT =     1.000
                            INITIAL TIME STEP SIZE =   30.00000    

 SLN_1 OUTER ITERATION SUMMARY
 ----------------------------------------------------------------------------------------------------------------------------------------------------------------
                                OUTER      INNER  BACKTRACK  BACKTRACK        INCOMING        OUTGOING                    STEP   MAXIMUM CHANGE MODEL-(CELLID) OR
 OUTER ITERATION STEP       ITERATION  ITERATION       FLAG ITERATIONS        RESIDUAL        RESIDUAL  MAXIMUM CHANGE SUCCESS             MODEL-PACKAGE-(NUMBER)
 ----------------------------------------------------------------------------------------------------------------------------------------------------------------
 Backtracking                       1                     0          0       10.140244       10.140244                       *                                   
 Model                              1         50                                                            0.38436529                             1_GWF-(1,33,1)
 Backtracking                       2                     0          0       2.9093878       2.9093878                       *                                   
 Model                              2         50                                                       -3.15847185E-02                              1_GWF-(2,5,1)
 Backtracking                       3                     0          0      0.67074715      0.67074715                       *                                   
 Model                              3         50                                                       -3.44398464E-03                             1_GWF-(2,33,2)
 Backtracking                       4                     0          1       1.5723046       1.1326651                                                           
 Model                              4         46                                                        1.64182728E-03                             1_GWF-(3,94,1)
 Backtracking                       5                     0          1       1.5995950       1.3823504                                                           
 Model                              5         34                                                        6.58519476E-04                            1_GWF-(3,58,12)
 Backtracking                       6                     0          0      0.90133823      0.90133823                       *                                   
 Model                              6         38                                                        3.30657600E-04                            1_GWF-(3,59,12)
 Backtracking                       7                     0          0      0.45972904      0.45972904                       *                                   
 Model                              7         27                                                        1.07199005E-04                             1_GWF-(3,58,8)
 Backtracking                       8                     0          0      0.16616148      0.16616148                       *                                   
 Model                              8         11                                                        1.50463650E-05                             1_GWF-(3,59,6)
 Backtracking                       9                     0          0  4.32659431E-02  4.32659431E-02                       *                                   
 Model                              9         13                                                        7.66584538E-05                             1_GWF-(2,34,2)
 Backtracking                      10                     0          1      0.18584574      0.13961812                                                           
 Model                             10         16                                                        4.27112316E-05                             1_GWF-(1,53,6)
 Backtracking                      11                     0          0      0.10816880      0.10816880                       *                                   
 Model                             11          4                                                        3.73378250E-06       *                    1_GWF-(2,72,10)
 ----------------------------------------------------------------------------------------------------------------------------------------------------------------


 11 CALLS TO NUMERICAL SOLUTION IN TIME STEP 1 STRESS PERIOD 6
 339 TOTAL ITERATIONS
 
    Solving:  Stress period:     7    Time step:     1
 
1
                            STRESS PERIOD NO. 7, LENGTH =   30.00000    
                            -----------------------------------------------
                            NUMBER OF TIME STEPS = 1
                            MULTIPLIER FOR DELT =     1.000
                            INITIAL TIME STEP SIZE =   30.00000    

 SLN_1 OUTER ITERATION SUMMARY
 ----------------------------------------------------------------------------------------------------------------------------------------------------------------
                                OUTER      INNER  BACKTRACK  BACKTRACK        INCOMING        OUTGOING                    STEP   MAXIMUM CHANGE MODEL-(CELLID) OR
 OUTER ITERATION STEP       ITERATION  ITERATION       FLAG ITERATIONS        RESIDUAL        RESIDUAL  MAXIMUM CHANGE SUCCESS             MODEL-PACKAGE-(NUMBER)
 ----------------------------------------------------------------------------------------------------------------------------------------------------------------
 Backtracking                       1                     0          0       8.1249997       8.1249997                       *                                   
 Model                              1         50                                                           -0.13573988                              1_GWF-(1,1,1)
 Backtracking                       2                     0          0       2.2446891       2.2446891                       *                                   
 Model                              2         50                                                       -3.84368674E-02                            1_GWF-(3,46,10)
 Backtracking                       3                     0          0      0.52283831      0.52283831                       *                                   
 Model                              3         50                                                       -9.69859552E-03                              1_GWF-(3,2,1)
 Backtracking                       4                     0          1       12.884316       9.0287316                                                           
 Model                              4         50                                                       -2.57681586E-03                            1_GWF-(3,45,10)
 Backtracking                       5                     0          0       7.3905694       7.3905694                       *                                   
 Model                              5         29                                                       -4.18639120E-04                            1_GWF-(3,85,24)
 Backtracking                       6                     0          0       1.1478043       1.1478043                       *                                   
 Model                              6         29                                                       -8.00409358E-04                            1_GWF-(3,93,18)
 Backtracking                       7                     0          1       2.1106879       1.5453417                                                           
 Model                              7         36                                                       -3.20644982E-04                             1_GWF-(2,64,1)
 Backtracking                       8                     0          0      0.91125953      0.91125953                       *                                   
 Model                              8         50                                                       -3.65266579E-04                             1_GWF-(3,91,1)
 Backtracking                       9                     0          1       1.0892072       1.0040513                                                           
 Model                              9         17                                                       -4.74097099E-05                            1_GWF-(3,96,13)
 Backtracking                      10                     0          0      0.12813696      0.12813696                       *                                   
 Model                             10         17                                                       -4.71823428E-05                             1_GWF-(2,48,8)
 Backtracking                      11                     0          0  3.87096445E-02  3.87096445E-02                       *                                   
 Model                             11         24                                                       -6.69623405E-05                            1_GWF-(2,44,25)
 Backtracking                      12                     0          1      0.15476800      0.11570233                                                           
 Model                             12         14                                                       -1.54701591E-05                             1_GWF-(1,24,1)
 Backtracking                      13                     0          0  2.18318277E-02  2.18318277E-02                       *                                   
 Model                             13         18                                                       -6.18329843E-05                             1_GWF-(1,64,1)
 Backtracking                      14                     0          1      0.15017651      0.10736574                                                           
 Model                             14         17                                                       -1.52437592E-05                             1_GWF-(1,24,1)
 Backtracking                      15                     0          0  2.63374061E-02  2.63374061E-02                       *                                   
 Model                             15         29                                                       -6.54894726E-05                             1_GWF-(3,78,1)
 Backtracking                      16                     0          1      0.14771800      0.10745373                                                           
 Model                             16          8                                                        1.31362787E-05                             1_GWF-(1,28,1)
 Backtracking                      17                     0          0  2.55738426E-02  2.55738426E-02                       *                                   
 Model                             17          8                                                       -6.59035406E-06       *                     1_GWF-(1,80,1)
 ----------------------------------------------------------------------------------------------------------------------------------------------------------------


 17 CALLS TO NUMERICAL SOLUTION IN TIME STEP 1 STRESS PERIOD 7
 496 TOTAL ITERATIONS
 
    Solving:  Stress period:     8    Time step:     1
 
1
                            STRESS PERIOD NO. 8, LENGTH =   30.00000    
                            -----------------------------------------------
                            NUMBER OF TIME STEPS = 1
                            MULTIPLIER FOR DELT =     1.000
                            INITIAL TIME STEP SIZE =   30.00000    

 SLN_1 OUTER ITERATION SUMMARY
 ----------------------------------------------------------------------------------------------------------------------------------------------------------------
                                OUTER      INNER  BACKTRACK  BACKTRACK        INCOMING        OUTGOING                    STEP   MAXIMUM CHANGE MODEL-(CELLID) OR
 OUTER ITERATION STEP       ITERATION  ITERATION       FLAG ITERATIONS        RESIDUAL        RESIDUAL  MAXIMUM CHANGE SUCCESS             MODEL-PACKAGE-(NUMBER)
 ----------------------------------------------------------------------------------------------------------------------------------------------------------------
 Backtracking                       1                     0          0       23.972345       23.972345                       *                                   
 Model                              1         50                                                           -0.62364315                             1_GWF-(1,28,1)
 Backtracking                       2                     0          0       6.1275546       6.1275546                       *                                   
 Model                              2         50                                                       -5.77761938E-02                             1_GWF-(3,56,3)
 Backtracking                       3                     0          0       1.4315241       1.4315241                       *                                   
 Model                              3         50                                                       -1.87251224E-02                             1_GWF-(3,35,2)
 Backtracking                       4                     0          1       25.237361       17.685033                                                           
 Model                              4         50                                                       -8.62138068E-03                              1_GWF-(3,2,1)
 Backtracking                       5                     0          0       17.592796       17.592796                       *                                   
 Model                              5         50                                                       -2.31095290E-03                             1_GWF-(3,14,7)
 Backtracking                       6                     0          0       5.0060095       5.0060095                       *                                   
 Model                              6         16                                                       -3.41236876E-04                             1_GWF-(2,13,1)
 Backtracking                       7                     0          0      0.71796223      0.71796223                       *                                   
 Model                              7         50                                                       -1.45464917E-03                              1_GWF-(3,2,1)
 Backtracking                       8                     0          1       4.6139616       3.2425889                                                           
 Model                              8         29                                                       -2.49203272E-04                              1_GWF-(1,1,8)
 Backtracking                       9                     0          0      0.86591168      0.86591168                       *                                   
 Model                              9         48                                                       -5.96734432E-04                              1_GWF-(1,1,8)
 Backtracking                      10                     0          1       1.6301345       1.3604921                                                           
 Model                             10         23                                                       -1.15925964E-04                              1_GWF-(1,1,8)
 Backtracking                      11                     0          0      0.42609829      0.42609829                       *                                   
 Model                             11         43                                                       -3.17523797E-04                              1_GWF-(1,1,8)
 Backtracking                      12                     1          1      0.56710227      0.44864554                                                           
 Model                             12         23                                                       -5.65316035E-05                              1_GWF-(3,2,9)
 Backtracking                      13                     0          0      0.15703203      0.15703203                       *                                   
 Model                             13         33                                                       -1.35420334E-04                              1_GWF-(1,1,8)
 Backtracking                      14                     1          1      0.20598282      0.16402398                                                           
 Model                             14          6                                                       -8.05783231E-06       *                    1_GWF-(1,20,19)
 ----------------------------------------------------------------------------------------------------------------------------------------------------------------


 14 CALLS TO NUMERICAL SOLUTION IN TIME STEP 1 STRESS PERIOD 8
 521 TOTAL ITERATIONS
 
    Solving:  Stress period:     9    Time step:     1
 
1
                            STRESS PERIOD NO. 9, LENGTH =   30.00000    
                            -----------------------------------------------
                            NUMBER OF TIME STEPS = 1
                            MULTIPLIER FOR DELT =     1.000
                            INITIAL TIME STEP SIZE =   30.00000    

 SLN_1 OUTER ITERATION SUMMARY
 ----------------------------------------------------------------------------------------------------------------------------------------------------------------
                                OUTER      INNER  BACKTRACK  BACKTRACK        INCOMING        OUTGOING                    STEP   MAXIMUM CHANGE MODEL-(CELLID) OR
 OUTER ITERATION STEP       ITERATION  ITERATION       FLAG ITERATIONS        RESIDUAL        RESIDUAL  MAXIMUM CHANGE SUCCESS             MODEL-PACKAGE-(NUMBER)
 ----------------------------------------------------------------------------------------------------------------------------------------------------------------
 Backtracking                       1                     0          0       33.894142       33.894142                       *                                   
 Model                              1         50                                                           -0.97103903                             1_GWF-(1,30,1)
 Backtracking                       2                     0          0       8.5072140       8.5072140                       *                                   
 Model                              2         50                                                       -5.82651267E-02                             1_GWF-(2,59,2)
 Backtracking                       3                     0          0       1.8599229       1.8599229                       *                                   
 Model                              3         50                                                       -2.54725526E-02                             1_GWF-(3,41,5)
 Backtracking                       4                     0          1       35.152839       24.617972                                                           
 Model                              4         50                                                       -1.08392201E-02                             1_GWF-(3,26,1)
 Backtracking                       5                     0          0       22.585027       22.585027                       *                                   
 Model                              5         38                                                       -2.12108988E-03                             1_GWF-(3,26,1)
 Backtracking                       6                     0          0       3.4809017       3.4809017                       *                                   
 Model                              6         38                                                       -3.21766547E-03                             1_GWF-(3,26,1)
 Backtracking                       7                     0          1       6.7563689       4.9425134                                                           
 Model                              7         15                                                       -2.97911198E-04                            1_GWF-(2,35,12)
 Backtracking                       8                     0          0      0.60495952      0.60495952                       *                                   
 Model                              8         50                                                       -1.93229843E-03                              1_GWF-(3,1,1)
 Backtracking                       9                     0          1       3.3719333       2.3727838                                                           
 Model                              9         24                                                       -2.05350243E-04                             1_GWF-(2,98,9)
 Backtracking                      10                     0          0      0.37611509      0.37611509                       *                                   
 Model                             10         12                                                       -1.00845751E-04                             1_GWF-(2,99,8)
 Backtracking                      11                     0          0      0.11297387      0.11297387                       *                                   
 Model                             11         47                                                       -6.55552406E-04                             1_GWF-(3,32,2)
 Backtracking                      12                     0          1       1.3410399      0.95784225                                                           
 Model                             12         14                                                       -7.53700907E-05                             1_GWF-(2,98,9)
 Backtracking                      13                     0          0      0.12806050      0.12806050                       *                                   
 Model                             13         35                                                       -1.77949364E-04                             1_GWF-(2,34,2)
 Backtracking                      14                     0          0  7.31332297E-02  7.31332297E-02                       *                                   
 Model                             14         37                                                       -1.33305676E-04                             1_GWF-(2,59,3)
 Backtracking                      15                     0          0  5.46495539E-02  5.46495539E-02                       *                                   
 Model                             15         23                                                       -4.52611129E-05                             1_GWF-(2,99,8)
 Backtracking                      16                     0          0  3.20563999E-02  3.20563999E-02                       *                                   
 Model                             16          4                                                       -1.25624581E-05                             1_GWF-(1,99,8)
 Backtracking                      17                     0          0  1.23524181E-02  1.23524181E-02                       *                                   
 Model                             17         20                                                       -5.61947760E-05                              1_GWF-(1,1,1)
 Backtracking                      18                     0          1  5.65780231E-02  4.03292967E-02                                                           
 Model                             18          4                                                       -3.43851836E-06       *                     1_GWF-(1,4,12)
 ----------------------------------------------------------------------------------------------------------------------------------------------------------------


 18 CALLS TO NUMERICAL SOLUTION IN TIME STEP 1 STRESS PERIOD 9
 561 TOTAL ITERATIONS
 
    Solving:  Stress period:    10    Time step:     1
 
1
                            STRESS PERIOD NO. 10, LENGTH =   30.00000    
                            -----------------------------------------------
                            NUMBER OF TIME STEPS = 1
                            MULTIPLIER FOR DELT =     1.000
                            INITIAL TIME STEP SIZE =   30.00000    

 SLN_1 OUTER ITERATION SUMMARY
 ----------------------------------------------------------------------------------------------------------------------------------------------------------------
                                OUTER      INNER  BACKTRACK  BACKTRACK        INCOMING        OUTGOING                    STEP   MAXIMUM CHANGE MODEL-(CELLID) OR
 OUTER ITERATION STEP       ITERATION  ITERATION       FLAG ITERATIONS        RESIDUAL        RESIDUAL  MAXIMUM CHANGE SUCCESS             MODEL-PACKAGE-(NUMBER)
 ----------------------------------------------------------------------------------------------------------------------------------------------------------------
 Backtracking                       1                     0          0       35.165950       35.165950                       *                                   
 Model                              1         50                                                            -1.0720977                             1_GWF-(1,32,1)
 Backtracking                       2                     0          0       9.4971921       9.4971921                       *                                   
 Model                              2         50                                                       -4.09302119E-02                             1_GWF-(2,60,5)
 Backtracking                       3                     0          0       1.3168783       1.3168783                       *                                   
 Model                              3         50                                                       -1.83511362E-02                             1_GWF-(3,44,9)
 Backtracking                       4                     0          1       46.568638       32.584057                                                           
 Model                              4         50                                                       -6.90033374E-03                             1_GWF-(3,30,3)
 Backtracking                       5                     0          0       18.712840       18.712840                       *                                   
 Model                              5         50                                                       -4.60462711E-03                             1_GWF-(3,30,1)
 Backtracking                       6                     0          0       8.8972068       8.8972068                       *                                   
 Model                              6         50                                                       -1.60671169E-03                             1_GWF-(3,30,1)
 Backtracking                       7                     0          0       3.0817575       3.0817575                       *                                   
 Model                              7         18                                                       -2.52386853E-04                             1_GWF-(3,30,1)
 Backtracking                       8                     0          0      0.41722924      0.41722924                       *                                   
 Model                              8         18                                                       -3.78449227E-04                             1_GWF-(2,24,5)
 Backtracking                       9                     0          0      0.37972990      0.37972990                       *                                   
 Model                              9         46                                                       -6.72911031E-04                              1_GWF-(2,1,1)
 Backtracking                      10                     0          1       1.6121784       1.2247372                                                           
 Model                             10         16                                                       -8.06492306E-05                            1_GWF-(3,40,11)
 Backtracking                      11                     0          0      0.22391370      0.22391370                       *                                   
 Model                             11         38                                                       -2.77389801E-04                             1_GWF-(3,26,1)
 Backtracking                      12                     0          1      0.52445174      0.38089601                                                           
 Model                             12         22                                                       -3.95953868E-05                             1_GWF-(3,51,1)
 Backtracking                      13                     0          0      0.11443960      0.11443960                       *                                   
 Model                             13         28                                                       -1.61368339E-04                             1_GWF-(3,40,7)
 Backtracking                      14                     0          1      0.37609431      0.29137391                                                           
 Model                             14         14                                                       -1.58815901E-05                             1_GWF-(3,51,3)
 Backtracking                      15                     0          0  6.60975576E-02  6.60975576E-02                       *                                   
 Model                             15          4                                                       -3.54745586E-06       *                    1_GWF-(1,99,18)
 ----------------------------------------------------------------------------------------------------------------------------------------------------------------


 15 CALLS TO NUMERICAL SOLUTION IN TIME STEP 1 STRESS PERIOD 10
 504 TOTAL ITERATIONS
 
    Solving:  Stress period:    11    Time step:     1
 
1
                            STRESS PERIOD NO. 11, LENGTH =   30.00000    
                            -----------------------------------------------
                            NUMBER OF TIME STEPS = 1
                            MULTIPLIER FOR DELT =     1.000
                            INITIAL TIME STEP SIZE =   30.00000    

 SLN_1 OUTER ITERATION SUMMARY
 ----------------------------------------------------------------------------------------------------------------------------------------------------------------
                                OUTER      INNER  BACKTRACK  BACKTRACK        INCOMING        OUTGOING                    STEP   MAXIMUM CHANGE MODEL-(CELLID) OR
 OUTER ITERATION STEP       ITERATION  ITERATION       FLAG ITERATIONS        RESIDUAL        RESIDUAL  MAXIMUM CHANGE SUCCESS             MODEL-PACKAGE-(NUMBER)
 ----------------------------------------------------------------------------------------------------------------------------------------------------------------
 Backtracking                       1                     0          0       27.368832       27.368832                       *                                   
 Model                              1         50                                                           -0.90100068                             1_GWF-(1,32,1)
 Backtracking                       2                     0          0       9.8569615       9.8569615                       *                                   
 Model                              2         50                                                        4.34093333E-02                              1_GWF-(3,2,1)
 Backtracking                       3                     0          0       1.6176568       1.6176568                       *                                   
 Model                              3         50                                                       -1.16346067E-02                            1_GWF-(3,64,21)
 Backtracking                       4                     0          1       39.419561       27.626537                                                           
 Model                              4         50                                                       -5.77997991E-03                            1_GWF-(3,97,17)
 Backtracking                       5                     0          0       21.490975       21.490975                       *                                   
 Model                              5         50                                                       -3.60736127E-03                             1_GWF-(3,40,9)
 Backtracking                       6                     0          0       8.6154366       8.6154366                       *                                   
 Model                              6         50                                                       -1.54280785E-03                             1_GWF-(3,40,9)
[...]
 Backtracking                      12                     0          0      0.26067238      0.26067238                       *                                   
 Model                             12         17                                                       -9.51060845E-05                             1_GWF-(2,18,2)
 Backtracking                      13                     0          0      0.28644666      0.28644666                       *                                   
 Model                             13         14                                                       -3.18823716E-05                             1_GWF-(1,64,2)
 Backtracking                      14                     0          0  7.72945870E-02  7.72945870E-02                       *                                   
 Model                             14         38                                                       -3.25155812E-04                             1_GWF-(3,29,2)
 Backtracking                      15                     0          1      0.76649871      0.54158646                                                           
 Model                             15         21                                                       -3.38540331E-05                             1_GWF-(2,55,2)
 Backtracking                      16                     0          0      0.12306638      0.12306638                       *                                   
 Model                             16          5                                                       -9.38199043E-06       *                   1_GWF-(2,101,33)
 ----------------------------------------------------------------------------------------------------------------------------------------------------------------


 16 CALLS TO NUMERICAL SOLUTION IN TIME STEP 1 STRESS PERIOD 22
 517 TOTAL ITERATIONS
 
    Solving:  Stress period:    23    Time step:     1
 
1
                            STRESS PERIOD NO. 23, LENGTH =   30.00000    
                            -----------------------------------------------
                            NUMBER OF TIME STEPS = 1
                            MULTIPLIER FOR DELT =     1.000
                            INITIAL TIME STEP SIZE =   30.00000    

 SLN_1 OUTER ITERATION SUMMARY
 ----------------------------------------------------------------------------------------------------------------------------------------------------------------
                                OUTER      INNER  BACKTRACK  BACKTRACK        INCOMING        OUTGOING                    STEP   MAXIMUM CHANGE MODEL-(CELLID) OR
 OUTER ITERATION STEP       ITERATION  ITERATION       FLAG ITERATIONS        RESIDUAL        RESIDUAL  MAXIMUM CHANGE SUCCESS             MODEL-PACKAGE-(NUMBER)
 ----------------------------------------------------------------------------------------------------------------------------------------------------------------
 Backtracking                       1                     0          0       29.055510       29.055510                       *                                   
 Model                              1         50                                                           -0.94475964                             1_GWF-(1,31,1)
 Backtracking                       2                     0          0       10.088875       10.088875                       *                                   
 Model                              2         50                                                        4.51178525E-02                              1_GWF-(3,1,1)
 Backtracking                       3                     0          0       1.7565928       1.7565928                       *                                   
 Model                              3         50                                                       -1.27868060E-02                             1_GWF-(3,93,1)
 Backtracking                       4                     0          1       40.700078       28.456832                                                           
 Model                              4         50                                                       -6.85111465E-03                            1_GWF-(3,98,14)
 Backtracking                       5                     0          0       24.164838       24.164838                       *                                   
 Model                              5         46                                                       -2.35560924E-03                            1_GWF-(3,38,12)
 Backtracking                       6                     0          0       4.5561443       4.5561443                       *                                   
 Model                              6         50                                                       -2.56218553E-03                             1_GWF-(3,38,6)
 Backtracking                       7                     1          1       5.4628367       4.8900726                                                           
 Model                              7         33                                                       -5.52553390E-04                            1_GWF-(3,38,12)
 Backtracking                       8                     0          0      0.81232080      0.81232080                       *                                   
 Model                              8         40                                                       -1.11608817E-03                              1_GWF-(3,2,1)
 Backtracking                       9                     0          1       2.2093423       1.5811581                                                           
 Model                              9         50                                                       -3.54107724E-04                            1_GWF-(3,38,12)
 Backtracking                      10                     0          0      0.70138932      0.70138932                       *                                   
 Model                             10         29                                                       -1.08778433E-04                             1_GWF-(3,42,9)
 Backtracking                      11                     0          0      0.19085527      0.19085527                       *                                   
 Model                             11         35                                                       -2.14561318E-04                             1_GWF-(3,18,1)
 Backtracking                      12                     0          1      0.42218689      0.34774020                                                           
 Model                             12         16                                                       -2.33308527E-05                            1_GWF-(2,42,12)
 Backtracking                      13                     0          0  4.60438521E-02  4.60438521E-02                       *                                   
 Model                             13          4                                                       -3.10229398E-06       *                    1_GWF-(1,42,12)
 ----------------------------------------------------------------------------------------------------------------------------------------------------------------


 13 CALLS TO NUMERICAL SOLUTION IN TIME STEP 1 STRESS PERIOD 23
 503 TOTAL ITERATIONS
 
    Solving:  Stress period:    24    Time step:     1
 
1
                            STRESS PERIOD NO. 24, LENGTH =   30.00000    
                            -----------------------------------------------
                            NUMBER OF TIME STEPS = 1
                            MULTIPLIER FOR DELT =     1.000
                            INITIAL TIME STEP SIZE =   30.00000    

 SLN_1 OUTER ITERATION SUMMARY
 ----------------------------------------------------------------------------------------------------------------------------------------------------------------
                                OUTER      INNER  BACKTRACK  BACKTRACK        INCOMING        OUTGOING                    STEP   MAXIMUM CHANGE MODEL-(CELLID) OR
 OUTER ITERATION STEP       ITERATION  ITERATION       FLAG ITERATIONS        RESIDUAL        RESIDUAL  MAXIMUM CHANGE SUCCESS             MODEL-PACKAGE-(NUMBER)
 ----------------------------------------------------------------------------------------------------------------------------------------------------------------
 Backtracking                       1                     0          0       15.088589       15.088589                       *                                   
 Model                              1         50                                                           -0.55902756                             1_GWF-(1,33,1)
 Backtracking                       2                     0          0       7.3632436       7.3632436                       *                                   
 Model                              2         50                                                        4.03162686E-02                              1_GWF-(3,2,1)
 Backtracking                       3                     0          0       1.2747122       1.2747122                       *                                   
 Model                              3         50                                                       -6.50383386E-03                            1_GWF-(3,101,7)
 Backtracking                       4                     0          1       4.4445373       3.1593054                                                           
 Model                              4         50                                                       -4.14781009E-03                             1_GWF-(3,88,1)
 Backtracking                       5                     0          1       5.5749796       4.5771677                                                           
 Model                              5         50                                                       -2.23548145E-03                             1_GWF-(3,56,5)
 Backtracking                       6                     0          0       3.2967659       3.2967659                       *                                   
 Model                              6         19                                                        2.80880790E-04                             1_GWF-(1,63,6)
 Backtracking                       7                     0          0      0.41428061      0.41428061                       *                                   
 Model                              7         42                                                       -1.09090446E-03                             1_GWF-(3,27,1)
 Backtracking                       8                     0          1       1.3447184      0.95644178                                                           
 Model                              8         14                                                       -6.38868337E-05                            1_GWF-(3,71,14)
 Backtracking                       9                     0          0      0.14194040      0.14194040                       *                                   
 Model                              9         14                                                       -1.40738333E-04                             1_GWF-(1,61,2)
 Backtracking                      10                     1          1      0.16108070      0.13699635                                                           
 Model                             10         26                                                       -3.21259444E-04                             1_GWF-(3,47,9)
 Backtracking                      11                     0          1      0.52826594      0.39776684                                                           
 Model                             11         28                                                       -9.95962310E-05                             1_GWF-(2,25,2)
 Backtracking                      12                     0          0      0.18533515      0.18533515                       *                                   
 Model                             12         14                                                       -2.02572402E-05                            1_GWF-(2,44,25)
 Backtracking                      13                     0          0  5.10821606E-02  5.10821606E-02                       *                                   
 Model                             13         23                                                       -1.62616404E-04                             1_GWF-(3,43,8)
 Backtracking                      14                     0          1      0.39752047      0.28942422                                                           
 Model                             14         15                                                        1.30229288E-05                            1_GWF-(2,67,22)
 Backtracking                      15                     0          0  5.08041115E-02  5.08041115E-02                       *                                   
 Model                             15          4                                                       -2.78130707E-06       *                    1_GWF-(1,73,36)
 ----------------------------------------------------------------------------------------------------------------------------------------------------------------


 15 CALLS TO NUMERICAL SOLUTION IN TIME STEP 1 STRESS PERIOD 24
 449 TOTAL ITERATIONS
 
    Solving:  Stress period:    25    Time step:     1
 
1
                            STRESS PERIOD NO. 25, LENGTH =   30.00000    
                            -----------------------------------------------
                            NUMBER OF TIME STEPS = 1
                            MULTIPLIER FOR DELT =     1.000
                            INITIAL TIME STEP SIZE =   30.00000    

 SLN_1 OUTER ITERATION SUMMARY
 ----------------------------------------------------------------------------------------------------------------------------------------------------------------
                                OUTER      INNER  BACKTRACK  BACKTRACK        INCOMING        OUTGOING                    STEP   MAXIMUM CHANGE MODEL-(CELLID) OR
 OUTER ITERATION STEP       ITERATION  ITERATION       FLAG ITERATIONS        RESIDUAL        RESIDUAL  MAXIMUM CHANGE SUCCESS             MODEL-PACKAGE-(NUMBER)
 ----------------------------------------------------------------------------------------------------------------------------------------------------------------
 Backtracking                       1                     0          0       3.8911818       3.8911818                       *                                   
 Model                              1         50                                                        2.96350434E-02                            1_GWF-(1,94,60)
 Backtracking                       2                     0          0       1.8320802       1.8320802                       *                                   
 Model                              2         50                                                        2.94800787E-02                             1_GWF-(3,80,4)
 Backtracking                       3                     0          1       18.539633       13.004985                                                           
 Model                              3         50                                                        2.09172401E-02                             1_GWF-(3,40,5)
 Backtracking                       4                     0          0       13.321217       13.321217                       *                                   
 Model                              4         50                                                        2.51912587E-03                              1_GWF-(1,1,4)
 Backtracking                       5                     0          0       2.0284321       2.0284321                       *                                   
 Model                              5         15                                                        3.48975944E-04                              1_GWF-(1,2,1)
 Backtracking                       6                     0          0      0.20351211      0.20351211                       *                                   
 Model                              6         50                                                        1.84445449E-03                             1_GWF-(3,41,5)
 Backtracking                       7                     0          1       2.9689265       2.1028439                                                           
 Model                              7         48                                                        5.24760202E-04                              1_GWF-(2,2,5)
 Backtracking                       8                     0          0      0.73143025      0.73143025                       *                                   
 Model                              8         10                                                        5.25280428E-05                            1_GWF-(3,24,17)
 Backtracking                       9                     0          0      0.10086695      0.10086695                       *                                   
 Model                              9         10                                                        3.36727907E-05                             1_GWF-(1,60,9)
 Backtracking                      10                     0          0  2.25958601E-02  2.25958601E-02                       *                                   
 Model                             10         34                                                        3.27355614E-04                            1_GWF-(3,46,10)
 Backtracking                      11                     0          1      0.71361231      0.50154969                                                           
 Model                             11         28                                                        5.30298554E-05                             1_GWF-(2,55,6)
 Backtracking                      12                     0          0      0.14040959      0.14040959                       *                                   
 Model                             12         17                                                        3.04983002E-05                              1_GWF-(2,1,4)
 Backtracking                      13                     0          0  5.34093439E-02  5.34093439E-02                       *                                   
 Model                             13          4                                                        6.82622306E-06       *                      1_GWF-(2,2,4)
 ----------------------------------------------------------------------------------------------------------------------------------------------------------------


 13 CALLS TO NUMERICAL SOLUTION IN TIME STEP 1 STRESS PERIOD 25
 416 TOTAL ITERATIONS

 MEMORY MANAGER TOTAL STORAGE BY DATA TYPE, IN MEGABYTES
 -------------------------------
                    ALLOCATED   
 DATA TYPE           MEMORY     
 -------------------------------
 Character        1.21330000E-02
 Logical          4.40000000E-05
 Integer          5.6056600     
 Real             10.576256     
 -------------------------------
 Total            16.194093     
 -------------------------------


 
 Run end date and time (yyyy/mm/dd hh:mm:ss): 2023/10/17 12:45:08
 Elapsed run time:  8.967 Seconds

WARNING REPORT:

  1. NONLINEAR BLOCK VARIABLE 'OUTER_HCLOSE' IN FILE 'freyberg6.ims' WAS
     DEPRECATED IN VERSION 6.1.1. SETTING OUTER_DVCLOSE TO OUTER_HCLOSE VALUE.
  2. LINEAR BLOCK VARIABLE 'INNER_HCLOSE' IN FILE 'freyberg6.ims' WAS
     DEPRECATED IN VERSION 6.1.1. SETTING INNER_DVCLOSE TO INNER_HCLOSE VALUE.
 Normal termination of simulation.
