                                   MODFLOW 6
                U.S. GEOLOGICAL SURVEY MODULAR HYDROLOGIC MODEL
                          GROUNDWATER FLOW MODEL (GWF)
                            VERSION 6.4.2 06/28/2023

   MODFLOW 6 compiled Jul 05 2023 20:29:14 with Intel(R) Fortran Intel(R) 64
   Compiler Classic for applications running on Intel(R) 64, Version 2021.7.0
                             Build 20220726_000000

This software has been approved for release by the U.S. Geological 
Survey (USGS). Although the software has been subjected to rigorous 
review, the USGS reserves the right to update the software as needed 
pursuant to further analysis and review. No warranty, expressed or 
implied, is made by the USGS or the U.S. Government as to the 
functionality of the software and related material nor shall the 
fact of release constitute any such warranty. Furthermore, the 
software is released on condition that neither the USGS nor the U.S. 
Government shall be held liable for any damages resulting from its 
authorized or unauthorized use. Also refer to the USGS Water 
Resources Software User Rights Notice for complete use, copyright, 
and distribution information.


As a work of the United States Government, this USGS product is 
in the public domain within the United States. You can copy, 
modify, distribute, and perform the work, even for commercial 
purposes, all without asking permission. Additionally, USGS 
waives copyright and related rights in the work worldwide 
through CC0 1.0 Universal Public Domain Dedication 
(https://creativecommons.org/publicdomain/zero/1.0/).

The following GNU Lesser General Public License (LGPL) libraries
are used in this USGS product:

    SPARSKIT version 2.0
      ilut, luson, and qsplit 
      (https://www-users.cse.umn.edu/~saad/software/SPARSKIT/)

    RCM - Reverse Cuthill McKee Ordering
      (https://people.math.sc.edu/Burkardt/f_src/rcm/rcm.html)

    BLAS - Basic Linear Algebra Subprograms Level 1
      (https://people.math.sc.edu/Burkardt/f_src/blas1_d/blas1_d.html)

    SPARSEKIT - Sparse Matrix Utility Package
      amux, dperm, dvperm, rperm, and cperm
      (https://people.sc.fsu.edu/~jburkardt/f77_src/sparsekit/sparsekit.html)

The following BSD-3 License libraries are used in this USGS product:

    Modern Fortran DAG Library
      Copyright (c) 2018, Jacob Williams
      All rights reserved.
      (https://github.com/jacobwilliams/daglib)

MODFLOW 6 compiler options: -Imac/obj_mf6 -O2 -no-heap-arrays -fpe0
-traceback -fpp -module mac/mod_mf6/ -c -o mac/obj_mf6/compilerversion.o

System command used to initiate simulation:
mf6

MODFLOW was compiled using uniform precision.

Real Variables
  KIND: 8
  TINY (smallest non-zero value):    2.225074-308
  HUGE (largest value):    1.797693+308
  PRECISION: 15
  SIZE IN BITS: 64

Integer Variables
  KIND: 4
  HUGE (largest value): 2147483647
  SIZE IN BITS: 32

Long Integer Variables
  KIND: 8
  HUGE (largest value): 9223372036854775807
  SIZE IN BITS: 64

Logical Variables
  KIND: 4
  SIZE IN BITS: 32
 
 NAMEFILE OPTIONS:
    FLOWS WILL BE SAVED TO BUDGET FILE SPECIFIED IN OUTPUT CONTROL
 END NAMEFILE OPTIONS:

 DIS -- STRUCTURED GRID DISCRETIZATION PACKAGE, VERSION 2 : 3/27/2014 - INPUT READ FROM MEMPATH: __INPUT__/GWF-P09-MF6/DIS                         


 NPF -- NODE PROPERTY FLOW PACKAGE, VERSION 1, 3/30/2015 INPUT READ FROM MEMPATH: __INPUT__/GWF-P09-MF6/NPF                         

 Setting Discretization Options
    Model length unit [0=UND, 1=FEET, 2=METERS, 3=CENTIMETERS] set as 2
 End Setting Discretization Options

 Setting Discretization Dimensions
    NLAY = 1
    NROW = 18
    NCOL = 14
 End Setting Discretization Dimensions

 Setting Discretization Griddata
    DELR set from input file
    DELC set from input file
    TOP set from input file
    BOTM set from input file
    IDOMAIN set from input file
 End Setting Discretization Griddata

 Setting NPF Options
    Specific discharge will be calculated at cell centers and written to DATA-SPDIS in budget file when requested.
 End Setting NPF Options

 Setting NPF Griddata
    ICELLTYPE set from input file
    K set from input file
    K33 set from input file
    K22 not provided.  Setting K22 = K.
 End Setting NPF Griddata


 WEL   -- WEL PACKAGE, VERSION 8, 2/22/2014 INPUT READ FROM UNIT 1008
 # File generated by Flopy version 3.7.0.dev0 on 05/14/2024 at 15:14:54.

 PROCESSING WEL OPTIONS
    AUXILIARY WEL VARIABLE: CONCENTRATION   
    LISTS OF WEL CELLS WILL BE PRINTED.
    WEL FLOWS WILL BE PRINTED TO LISTING FILE.
 END OF WEL OPTIONS

 PROCESSING WEL DIMENSIONS
    MAXBOUND =       2
 END OF WEL DIMENSIONS

 CHD   -- CHD PACKAGE, VERSION 8, 2/22/2014 INPUT READ FROM UNIT 1009
 # File generated by Flopy version 3.7.0.dev0 on 05/14/2024 at 15:14:54.

 PROCESSING CHD OPTIONS
    AUXILIARY CHD VARIABLE: CONCENTRATION   
 END OF CHD OPTIONS

 PROCESSING CHD DIMENSIONS
    MAXBOUND =      28
 END OF CHD DIMENSIONS

 IC -- INITIAL CONDITIONS PACKAGE, VERSION 8, 3/28/2015 INPUT READ FROM UNIT 1006
 # File generated by Flopy version 3.7.0.dev0 on 05/14/2024 at 15:14:54.
 PROCESSING GRIDDATA
 END PROCESSING GRIDDATA

 STO -- STORAGE PACKAGE, VERSION 1, 5/19/2014 INPUT READ FROM UNIT 1005


 # File generated by Flopy version 3.7.0.dev0 on 05/14/2024 at 15:14:54.
 PROCESSING STORAGE OPTIONS
 END OF STORAGE OPTIONS
 PROCESSING GRIDDATA

                 ICONVERT = 0

         SPECIFIC STORAGE =  0.1000000E-04

           SPECIFIC YIELD =  0.1500000    
 END PROCESSING GRIDDATA
    BINARY GRID INFORMATION WILL BE WRITTEN TO:
      UNIT NUMBER: 1023
      FILE NAME: gwf-p09-mf6.dis.grb

 OPENED gwf-p09-mf6.dis.grb
 FILE TYPE:DATA(BINARY)   UNIT 1023   STATUS:REPLACE             
 FORMAT:UNFORMATTED            ACCESS:STREAM              
 ACTION:READWRITE           

      THE LAST TIME STEP WILL BE PRINTED
      THE LAST TIME STEP WILL BE PRINTED
 # File generated by Flopy version 3.7.0.dev0 on 05/14/2024 at 15:14:54.

 PROCESSING OC OPTIONS

    BUDGET INFORMATION WILL BE WRITTEN TO:
      UNIT NUMBER: 1024
      FILE NAME: gwf-p09-mf6.bud

 OPENED gwf-p09-mf6.bud
 FILE TYPE:DATA(BINARY)   UNIT 1024   STATUS:REPLACE             
 FORMAT:UNFORMATTED            ACCESS:STREAM              
 ACTION:READWRITE           

    HEAD INFORMATION WILL BE WRITTEN TO:
      UNIT NUMBER: 1025
      FILE NAME: gwf-p09-mf6.hds

 OPENED gwf-p09-mf6.hds
 FILE TYPE:DATA(BINARY)   UNIT 1025   STATUS:REPLACE             
 FORMAT:UNFORMATTED            ACCESS:STREAM              
 ACTION:READWRITE           

 END OF OC OPTIONS

start timestep kper="1" kstp="1" mode="normal"


 BEGIN READING OUTPUT CONTROL FOR STRESS PERIOD 1
      THE LAST TIME STEP WILL BE SAVED
      THE LAST TIME STEP WILL BE SAVED
      THE LAST TIME STEP WILL BE PRINTED
      THE LAST TIME STEP WILL BE PRINTED

 END READING OUTPUT CONTROL FOR STRESS PERIOD 1


 STRESS PERIOD 1 IS TRANSIENT

 --------------------------------------------------------------------
  WEL NO.    LAYER    ROW     COL     STRESS RATE     CONCENTRATION  
 --------------------------------------------------------------------
     1         1       4       7     1.000000000E-03  57.8700000     
     2         1      11       7    -1.890000000E-02  0.00000000     
 --------------------------------------------------------------------


 UBDSV1 SAVING           STO-SS ON UNIT   1024 AT TIME STEP      1, STRESS PERIOD      1
 UBDSV1 SAVING     FLOW-JA-FACE ON UNIT   1024 AT TIME STEP      1, STRESS PERIOD      1
 UBDSV06 SAVING       DATA-SPDIS IN MODEL GWF-P09-MF6      PACKAGE NPF             CONNECTED TO MODEL GWF-P09-MF6      PACKAGE NPF              ON UNIT   1024 AT TIME STEP      1, STRESS PERIOD      1
 UBDSV06 SAVING              WEL IN MODEL GWF-P09-MF6      PACKAGE GWF-P09-MF6     CONNECTED TO MODEL GWF-P09-MF6      PACKAGE WEL-1            ON UNIT   1024 AT TIME STEP      1, STRESS PERIOD      1
 UBDSV06 SAVING              CHD IN MODEL GWF-P09-MF6      PACKAGE GWF-P09-MF6     CONNECTED TO MODEL GWF-P09-MF6      PACKAGE CHD-1            ON UNIT   1024 AT TIME STEP      1, STRESS PERIOD      1

 WEL PACKAGE (WEL-1) FLOW RATES   PERIOD      1   STEP        1
 -----------------------------------------------
   NUMBER   CELLID                    RATE      
 -----------------------------------------------
     1      (1,4,7)               1.00000000E-03
     2      (1,11,7)             -1.89000000E-02
 -----------------------------------------------



1
  HEAD IN LAYER   1 AT END OF TIME STEP   1 IN STRESS PERIOD    1
  ---------------------------------------------------------------------------

                1               2               3               4               5               6               7               8               9              10
               11              12              13              14
 ................................................................................................................................................................
   1      250.000         250.000         250.000         250.000         250.000         250.000         250.000         250.000         250.000         250.000    
          250.000         250.000         250.000         250.000    
   2      28.8387         28.8387         28.8387         28.8387         28.8387         28.8389         28.8393         28.8389         28.8387         28.8387    
          28.8387         28.8387         28.8387         28.8387    
   3      3.32670         3.32674         3.32675         3.32677         3.32693         3.32796         3.33309         3.32795         3.32687         3.32671    
          3.32669         3.32668         3.32668         3.32668    
   4     0.383851        0.384245        0.384329        0.384398        0.384967        0.390690        0.449643        0.390598        0.384467        0.383825    
         0.383757        0.383750        0.383749        0.383749    
   5     4.475436E-02    4.887587E-02    4.931289E-02    4.938349E-02    4.956821E-02    5.073689E-02    5.626567E-02    5.025050E-02    4.490100E-02    4.433493E-02
         4.427455E-02    4.426807E-02    4.426737E-02    4.426730E-02
   6     5.161413E-03    1.590228E-05    1.451660E-05    1.453718E-05    1.459160E-05    1.493577E-05    1.656285E-05    1.630999E-05    5.171343E-03    5.118857E-03
         5.108283E-03    5.106687E-03    5.106475E-03    5.106449E-03
   7     5.952413E-04    1.775176E-07    2.164172E-09    2.136890E-09    2.118292E-09    2.038582E-09    1.902134E-09    1.753776E-07    5.883236E-04    5.885822E-04
         5.889014E-04    5.890181E-04    5.890479E-04    5.890539E-04
   8     6.853102E-05    1.968825E-08   -5.292880E-09   -3.570143E-08   -2.162581E-07   -1.101371E-06   -3.828081E-06   -1.099662E-06   -2.380174E-06    5.135884E-05
         6.496229E-05    6.748910E-05    6.789915E-05    6.795976E-05
   9     6.889853E-06   -1.705993E-06   -1.797840E-05   -1.212045E-04   -7.342823E-04   -3.740461E-03   -1.300681E-02   -3.733018E-03   -6.629560E-04   -9.728540E-05
        -7.178777E-06    5.941443E-06    7.745744E-06    7.983030E-06
  10     5.870962E-07   -5.606782E-06   -5.303076E-05   -4.338779E-04   -3.324210E-03   -2.286403E-02   -0.119815       -2.286251E-02   -3.316813E-03   -4.303778E-04
        -5.103727E-05   -3.981928E-06    1.708654E-06    2.402729E-06
  11     4.461230E-06   -6.315336E-06   -1.144344E-04   -1.180607E-03   -1.181696E-02   -0.119692        -1.23338       -0.119691       -1.181353E-02   -1.176170E-03
        -1.088605E-04    4.455433E-07    1.226064E-05    1.381810E-05
  12     4.937808E-05    4.747378E-05    5.862383E-06   -3.667021E-04   -3.239894E-03   -2.273616E-02   -0.119614       -2.272436E-02   -3.216267E-03   -3.313606E-04
         5.278459E-05    1.053888E-04    1.162521E-04    1.205399E-04
  13     4.311930E-04    4.630444E-04    4.968842E-04    4.600262E-04   -2.003704E-05   -2.646563E-03   -1.110832E-02   -2.544437E-03    1.841883E-04    7.661801E-04
         9.040811E-04    9.670651E-04    1.015510E-03    1.049335E-03
  14     3.706482E-03    4.018041E-03    4.429596E-03    4.850889E-03    5.210345E-03    5.323299E-03    5.009830E-03    6.208621E-03    6.980867E-03    7.505785E-03
         7.963825E-03    8.404112E-03    8.818885E-03    9.130934E-03
  15     3.181595E-02    3.473248E-02    3.840410E-02    4.221329E-02    4.603556E-02    4.983422E-02    5.360370E-02    5.750912E-02    6.138488E-02    6.523346E-02
         6.906997E-02    7.288234E-02    7.655458E-02    7.947122E-02
  16     0.272857        0.300326        0.332784        0.365949        0.399202        0.432463        0.465723        0.498996        0.532267        0.565534    
         0.598789        0.631954        0.664412        0.691882    
  17      2.33756         2.59842         2.88416         3.17229         3.46065         3.74903         4.03742         4.32580         4.61419         4.90258    
          5.19094         5.47907         5.76480         6.02567    
  18      20.0000         22.5000         25.0000         27.5000         30.0000         32.5000         35.0000         37.5000         40.0000         42.5000    
          45.0000         47.5000         50.0000         52.5000    

 HEAD WILL BE SAVED ON UNIT 1025 AT END OF TIME STEP    1, STRESS PERIOD    1


  VOLUME BUDGET FOR ENTIRE MODEL AT END OF TIME STEP    1, STRESS PERIOD   1
  ---------------------------------------------------------------------------------------------------

     CUMULATIVE VOLUME      L**3       RATES FOR THIS TIME STEP      L**3/T          PACKAGE NAME    
     ------------------                 ------------------------                     ----------------

           IN:                                      IN:
           ---                                      ---
              STO-SS =           1.8828                STO-SS =       1.8828E-02     STORAGE                          
                 WEL =           0.1000                   WEL =       1.0000E-03     WEL-1                            
                 CHD =         522.5646                   CHD =           5.2256     CHD-1                            

            TOTAL IN =         524.5474              TOTAL IN =           5.2455

          OUT:                                     OUT:
          ----                                     ----
              STO-SS =         522.6574                STO-SS =           5.2266     STORAGE                          
                 WEL =           1.8900                   WEL =       1.8900E-02     WEL-1                            
                 CHD =           0.0000                   CHD =           0.0000     CHD-1                            

           TOTAL OUT =         524.5474             TOTAL OUT =           5.2455

            IN - OUT =       3.7126E-08              IN - OUT =       3.7126E-10

 PERCENT DISCREPANCY =           0.00     PERCENT DISCREPANCY =           0.00




         TIME SUMMARY AT END OF TIME STEP    1 IN STRESS PERIOD    1
                    SECONDS     MINUTES      HOURS       DAYS        YEARS
                    -----------------------------------------------------------
   TIME STEP LENGTH  100.00      1.6667     2.77778E-02 1.15741E-03 3.16881E-06
 STRESS PERIOD TIME  100.00      1.6667     2.77778E-02 1.15741E-03 3.16881E-06
         TOTAL TIME  100.00      1.6667     2.77778E-02 1.15741E-03 3.16881E-06


end timestep


start timestep kper="2" kstp="1" mode="normal"


 END OF FILE DETECTED IN OUTPUT CONTROL.
 CURRENT OUTPUT CONTROL SETTINGS WILL BE 
 REPEATED UNTIL THE END OF THE SIMULATION.

 OUTPUT CONTROL FOR STRESS PERIOD 2 IS REPEATED USING SETTINGS FROM A PREVIOUS STRESS PERIOD.


 STRESS PERIOD 2 IS TRANSIENT

 --------------------------------------------------------------------
  WEL NO.    LAYER    ROW     COL     STRESS RATE     CONCENTRATION  
 --------------------------------------------------------------------
     1         1       4       7     1.000000000E-03  0.00000000     
     2         1      11       7    -1.890000000E-02  0.00000000     
 --------------------------------------------------------------------



 REUSING CHDS FROM LAST STRESS PERIOD
 UBDSV1 SAVING           STO-SS ON UNIT   1024 AT TIME STEP      1, STRESS PERIOD      2
 UBDSV1 SAVING     FLOW-JA-FACE ON UNIT   1024 AT TIME STEP      1, STRESS PERIOD      2
 UBDSV06 SAVING       DATA-SPDIS IN MODEL GWF-P09-MF6      PACKAGE NPF             CONNECTED TO MODEL GWF-P09-MF6      PACKAGE NPF              ON UNIT   1024 AT TIME STEP      1, STRESS PERIOD      2
 UBDSV06 SAVING              WEL IN MODEL GWF-P09-MF6      PACKAGE GWF-P09-MF6     CONNECTED TO MODEL GWF-P09-MF6      PACKAGE WEL-1            ON UNIT   1024 AT TIME STEP      1, STRESS PERIOD      2
 UBDSV06 SAVING              CHD IN MODEL GWF-P09-MF6      PACKAGE GWF-P09-MF6     CONNECTED TO MODEL GWF-P09-MF6      PACKAGE CHD-1            ON UNIT   1024 AT TIME STEP      1, STRESS PERIOD      2

 WEL PACKAGE (WEL-1) FLOW RATES   PERIOD      2   STEP        1
 -----------------------------------------------
   NUMBER   CELLID                    RATE      
 -----------------------------------------------
     1      (1,4,7)               1.00000000E-03
     2      (1,11,7)             -1.89000000E-02
 -----------------------------------------------



1
  HEAD IN LAYER   1 AT END OF TIME STEP   1 IN STRESS PERIOD    2
  ---------------------------------------------------------------------------

                1               2               3               4               5               6               7               8               9              10
               11              12              13              14
 ................................................................................................................................................................
   1      250.000         250.000         250.000         250.000         250.000         250.000         250.000         250.000         250.000         250.000    
          250.000         250.000         250.000         250.000    
   2      51.7122         51.7122         51.7122         51.7122         51.7124         51.7129         51.7141         51.7128         51.7123         51.7122    
          51.7122         51.7122         51.7122         51.7122    
   3      8.60393         8.60416         8.60425         8.60435         8.60491         8.60792         8.61926         8.60783         8.60456         8.60393    
          8.60383         8.60381         8.60381         8.60381    
   4      1.29751         1.29967         1.30018         1.30048         1.30220         1.31533         1.40991         1.31475         1.29937         1.29719    
          1.29690         1.29687         1.29686         1.29686    
   5     0.187456        0.207270        0.209691        0.210089        0.210789        0.214272        0.226587        0.211536        0.187898        0.185090    
         0.184755        0.184715        0.184711        0.184710    
   6     2.571170E-02    8.445334E-05    7.623914E-05    7.637573E-05    7.663641E-05    7.800589E-05    8.325666E-05    8.612254E-05    2.573101E-02    2.543609E-02
         2.537013E-02    2.535920E-02    2.535761E-02    2.535740E-02
   7     3.437163E-03    1.201367E-06    1.356752E-08    1.335825E-08    1.323580E-08    1.275381E-08    1.200386E-08    1.185413E-06    3.392077E-03    3.390338E-03
         3.391415E-03    3.392065E-03    3.392266E-03    3.392312E-03
   8     4.498361E-04    1.492535E-07   -3.629511E-08   -2.204915E-07   -1.185513E-06   -5.285191E-06   -1.587408E-05   -5.244659E-06    8.314035E-05    3.496431E-04
         4.260806E-04    4.419798E-04    4.448401E-04    4.453033E-04
   9     5.028064E-05   -1.002915E-05   -1.053307E-04   -6.274056E-04   -3.291344E-03   -1.421094E-02   -4.093691E-02   -1.416596E-02   -2.911899E-03   -4.773265E-04
        -2.879860E-05    4.557757E-05    5.707722E-05    5.875443E-05
  10     5.409371E-06   -3.152424E-05   -2.713884E-04   -1.920995E-03   -1.239003E-02   -6.946744E-02   -0.284001       -6.945717E-02   -1.234487E-02   -1.896551E-03
        -2.562033E-04   -1.904599E-05    1.381473E-05    1.832963E-05
  11     3.018728E-05   -2.591952E-05   -5.090988E-04   -4.484151E-03   -3.638521E-02   -0.283438        -2.07002       -0.283427       -3.636254E-02   -4.454708E-03
        -4.723165E-04    1.842940E-05    8.102995E-05    9.047351E-05
  12     2.856042E-04    2.737578E-04    6.755765E-05   -1.533403E-03   -1.190624E-02   -6.876682E-02   -0.282992       -6.869879E-02   -1.177006E-02   -1.329869E-03
         3.374388E-04    6.060608E-04    6.679548E-04    6.921167E-04
  13     2.155487E-03    2.302959E-03    2.457531E-03    2.274012E-03    2.657394E-04   -9.015580E-03   -3.287640E-02   -8.508458E-03    1.279777E-03    3.793721E-03
         4.477057E-03    4.797118E-03    5.035517E-03    5.195662E-03
  14     1.557596E-02    1.680752E-02    1.848714E-02    2.021272E-02    2.164954E-02    2.210611E-02    2.132974E-02    2.580012E-02    2.903668E-02    3.128756E-02
         3.321996E-02    3.505392E-02    3.675412E-02    3.798915E-02
  15     0.108290        0.117631        0.129841        0.142659        0.155541        0.168320        0.181008        0.194256        0.207412        0.220442    
         0.233405        0.246244        0.258458        0.267799    
  16     0.710487        0.777992        0.860917        0.946489         1.03245         1.11846         1.20447         1.29053         1.37660         1.46263    
          1.54861         1.63419         1.71711         1.78462    
  17      4.21418         4.66354         5.17233         5.68847         6.20547         6.72258         7.23969         7.75682         8.27394         8.79105    
          9.30806         9.82419         10.3330         10.7823    
  18      20.0000         22.5000         25.0000         27.5000         30.0000         32.5000         35.0000         37.5000         40.0000         42.5000    
          45.0000         47.5000         50.0000         52.5000    

 HEAD WILL BE SAVED ON UNIT 1025 AT END OF TIME STEP    1, STRESS PERIOD    2


  VOLUME BUDGET FOR ENTIRE MODEL AT END OF TIME STEP    1, STRESS PERIOD   2
  ---------------------------------------------------------------------------------------------------

     CUMULATIVE VOLUME      L**3       RATES FOR THIS TIME STEP      L**3/T          PACKAGE NAME    
     ------------------                 ------------------------                     ----------------

           IN:                                      IN:
           ---                                      ---
              STO-SS =           3.7459                STO-SS =       1.8630E-02     STORAGE                          
                 WEL =           0.2000                   WEL =       1.0000E-03     WEL-1                            
                 CHD =         991.0829                   CHD =           4.6852     CHD-1                            

            TOTAL IN =         995.0288              TOTAL IN =           4.7048

          OUT:                                     OUT:
          ----                                     ----
              STO-SS =         991.2488                STO-SS =           4.6859     STORAGE                          
                 WEL =           3.7800                   WEL =       1.8900E-02     WEL-1                            
                 CHD =           0.0000                   CHD =           0.0000     CHD-1                            

           TOTAL OUT =         995.0288             TOTAL OUT =           4.7048

            IN - OUT =       8.1965E-08              IN - OUT =       4.4839E-10

 PERCENT DISCREPANCY =           0.00     PERCENT DISCREPANCY =           0.00




         TIME SUMMARY AT END OF TIME STEP    1 IN STRESS PERIOD    2
                    SECONDS     MINUTES      HOURS       DAYS        YEARS
                    -----------------------------------------------------------
   TIME STEP LENGTH  100.00      1.6667     2.77778E-02 1.15741E-03 3.16881E-06
 STRESS PERIOD TIME  100.00      1.6667     2.77778E-02 1.15741E-03 3.16881E-06
         TOTAL TIME  200.00      3.3333     5.55556E-02 2.31481E-03 6.33762E-06


end timestep


start timestep kper="3" kstp="1" mode="normal"


 OUTPUT CONTROL FOR STRESS PERIOD 3 IS REPEATED USING SETTINGS FROM A PREVIOUS STRESS PERIOD.


 STRESS PERIOD 3 IS TRANSIENT


 REUSING WELS FROM LAST STRESS PERIOD

 REUSING CHDS FROM LAST STRESS PERIOD
 UBDSV1 SAVING           STO-SS ON UNIT   1024 AT TIME STEP      1, STRESS PERIOD      3
 UBDSV1 SAVING     FLOW-JA-FACE ON UNIT   1024 AT TIME STEP      1, STRESS PERIOD      3
 UBDSV06 SAVING       DATA-SPDIS IN MODEL GWF-P09-MF6      PACKAGE NPF             CONNECTED TO MODEL GWF-P09-MF6      PACKAGE NPF              ON UNIT   1024 AT TIME STEP      1, STRESS PERIOD      3
 UBDSV06 SAVING              WEL IN MODEL GWF-P09-MF6      PACKAGE GWF-P09-MF6     CONNECTED TO MODEL GWF-P09-MF6      PACKAGE WEL-1            ON UNIT   1024 AT TIME STEP      1, STRESS PERIOD      3
 UBDSV06 SAVING              CHD IN MODEL GWF-P09-MF6      PACKAGE GWF-P09-MF6     CONNECTED TO MODEL GWF-P09-MF6      PACKAGE CHD-1            ON UNIT   1024 AT TIME STEP      1, STRESS PERIOD      3

 WEL PACKAGE (WEL-1) FLOW RATES   PERIOD      3   STEP        1
 -----------------------------------------------
   NUMBER   CELLID                    RATE      
 -----------------------------------------------
     1      (1,4,7)               1.00000000E-03
     2      (1,11,7)             -1.89000000E-02
 -----------------------------------------------



1
  HEAD IN LAYER   1 AT END OF TIME STEP   1 IN STRESS PERIOD    3
  ---------------------------------------------------------------------------

                1               2               3               4               5               6               7               8               9              10
               11              12              13              14
 ................................................................................................................................................................
   1      250.000         250.000         250.000         250.000         250.000         250.000         250.000         250.000         250.000         250.000    
          250.000         250.000         250.000         250.000    
   2      70.0990         70.0991         70.0992         70.0992         70.0995         70.1006         70.1029         70.1005         70.0994         70.0990    
          70.0990         70.0989         70.0989         70.0989    
   3      14.9391         14.9399         14.9402         14.9405         14.9417         14.9473         14.9644         14.9469         14.9405         14.9389    
          14.9387         14.9386         14.9386         14.9386    
   4      2.75744         2.76421         2.76598         2.76679         2.77011         2.79062         2.90721         2.78855         2.76092         2.75601    
          2.75524         2.75512         2.75511         2.75510    
   5     0.473584        0.529426        0.537125        0.538437        0.540065        0.546615        0.564959        0.537781        0.474248        0.465944    
         0.464856        0.464714        0.464696        0.464693    
   6     7.504948E-02    2.622778E-04    2.343258E-04    2.348444E-04    2.355846E-04    2.388825E-04    2.495306E-04    2.663952E-04    7.501126E-02    7.404609E-02
         7.381032E-02    7.376792E-02    7.376125E-02    7.376029E-02
   7     1.138534E-02    4.589790E-06    4.874149E-08    4.784647E-08    4.739458E-08    4.574895E-08    4.354323E-08    4.523407E-06    1.121955E-02    1.120173E-02
         1.120164E-02    1.120335E-02    1.120406E-02    1.120425E-02
   8     1.666436E-03    6.307150E-07   -1.391557E-07   -7.720266E-07   -3.746570E-06   -1.494282E-05   -3.995427E-05   -1.468498E-05    5.717724E-04    1.334160E-03
         1.577668E-03    1.633630E-03    1.644673E-03    1.646615E-03
   9     2.045944E-04   -3.195745E-05   -3.495673E-04   -1.872760E-03   -8.697657E-03   -3.280824E-02   -8.184997E-02   -3.265294E-02   -7.522160E-03   -1.335277E-03
        -4.609381E-05    1.932968E-04    2.343651E-04    2.409355E-04
  10     2.620885E-05   -9.973188E-05   -8.016470E-04   -5.023607E-03   -2.810717E-02   -0.134112       -0.457817       -0.134072       -2.794940E-02   -4.927574E-03
        -7.374043E-04   -4.654826E-05    6.132289E-05    7.779112E-05
  11     1.148731E-04   -5.427026E-05   -1.331094E-03   -1.036177E-02   -7.122513E-02   -0.456276        -2.66045       -0.456237       -7.114067E-02   -1.025146E-02
        -1.193994E-03    1.100107E-04    3.019932E-04    3.345199E-04
  12     9.472113E-04    9.065334E-04    3.166765E-04   -3.742539E-03   -2.651857E-02   -0.131898       -0.454826       -0.131673       -2.606839E-02   -3.070273E-03
         1.206832E-03    1.999909E-03    2.201197E-03    2.279459E-03
  13     6.308742E-03    6.709430E-03    7.123893E-03    6.606139E-03    1.657548E-03   -1.826923E-02   -6.105228E-02   -1.679415E-02    4.606817E-03    1.102459E-02
         1.298988E-02    1.393784E-02    1.462536E-02    1.507162E-02
  14     3.944635E-02    4.239320E-02    4.652115E-02    5.077591E-02    5.425423E-02    5.543662E-02    5.452778E-02    6.472964E-02    7.283674E-02    7.862802E-02
         8.354352E-02    8.814921E-02    9.235078E-02    9.531117E-02
  15     0.231580        0.250476        0.275982        0.303071        0.330345        0.357357        0.384221        0.412456        0.440533        0.468277    
         0.495815        0.522977        0.548500        0.567399    
  16      1.24125         1.35320         1.49532         1.64346         1.79262         1.94190         2.09120         2.24067         2.39012         2.53951    
          2.68872         2.83687         2.97899         3.09095    
  17      5.73978         6.32813         7.01255         7.71123         8.41191         9.11285         9.81383         10.5148         11.2158         11.9168    
          12.6175         13.3161         14.0006         14.5889    
  18      20.0000         22.5000         25.0000         27.5000         30.0000         32.5000         35.0000         37.5000         40.0000         42.5000    
          45.0000         47.5000         50.0000         52.5000    

 HEAD WILL BE SAVED ON UNIT 1025 AT END OF TIME STEP    1, STRESS PERIOD    3


  VOLUME BUDGET FOR ENTIRE MODEL AT END OF TIME STEP    1, STRESS PERIOD   3
  ---------------------------------------------------------------------------------------------------

     CUMULATIVE VOLUME      L**3       RATES FOR THIS TIME STEP      L**3/T          PACKAGE NAME    
     ------------------                 ------------------------                     ----------------

           IN:                                      IN:
           ---                                      ---
              STO-SS =           5.5734                STO-SS =       1.8275E-02     STORAGE                          
                 WEL =           0.3000                   WEL =       1.0000E-03     WEL-1                            
                 CHD =        1416.1558                   CHD =           4.2507     CHD-1                            

            TOTAL IN =        1422.0292              TOTAL IN =           4.2700

          OUT:                                     OUT:
          ----                                     ----
              STO-SS =        1416.3592                STO-SS =           4.2511     STORAGE                          
                 WEL =           5.6700                   WEL =       1.8900E-02     WEL-1                            
                 CHD =           0.0000                   CHD =           0.0000     CHD-1                            

           TOTAL OUT =        1422.0292             TOTAL OUT =           4.2700

            IN - OUT =       1.3329E-07              IN - OUT =       5.1327E-10

 PERCENT DISCREPANCY =           0.00     PERCENT DISCREPANCY =           0.00




         TIME SUMMARY AT END OF TIME STEP    1 IN STRESS PERIOD    3
                    SECONDS     MINUTES      HOURS       DAYS        YEARS
                    -----------------------------------------------------------
   TIME STEP LENGTH  100.00      1.6667     2.77778E-02 1.15741E-03 3.16881E-06
 STRESS PERIOD TIME  100.00      1.6667     2.77778E-02 1.15741E-03 3.16881E-06
         TOTAL TIME  300.00      5.0000     8.33333E-02 3.47222E-03 9.50643E-06


end timestep


start timestep kper="4" kstp="1" mode="normal"


 OUTPUT CONTROL FOR STRESS PERIOD 4 IS REPEATED USING SETTINGS FROM A PREVIOUS STRESS PERIOD.


 STRESS PERIOD 4 IS TRANSIENT


 REUSING WELS FROM LAST STRESS PERIOD

 REUSING CHDS FROM LAST STRESS PERIOD
 UBDSV1 SAVING           STO-SS ON UNIT   1024 AT TIME STEP      1, STRESS PERIOD      4
 UBDSV1 SAVING     FLOW-JA-FACE ON UNIT   1024 AT TIME STEP      1, STRESS PERIOD      4
 UBDSV06 SAVING       DATA-SPDIS IN MODEL GWF-P09-MF6      PACKAGE NPF             CONNECTED TO MODEL GWF-P09-MF6      PACKAGE NPF              ON UNIT   1024 AT TIME STEP      1, STRESS PERIOD      4
 UBDSV06 SAVING              WEL IN MODEL GWF-P09-MF6      PACKAGE GWF-P09-MF6     CONNECTED TO MODEL GWF-P09-MF6      PACKAGE WEL-1            ON UNIT   1024 AT TIME STEP      1, STRESS PERIOD      4
 UBDSV06 SAVING              CHD IN MODEL GWF-P09-MF6      PACKAGE GWF-P09-MF6     CONNECTED TO MODEL GWF-P09-MF6      PACKAGE CHD-1            ON UNIT   1024 AT TIME STEP      1, STRESS PERIOD      4

 WEL PACKAGE (WEL-1) FLOW RATES   PERIOD      4   STEP        1
 -----------------------------------------------
   NUMBER   CELLID                    RATE      
 -----------------------------------------------
     1      (1,4,7)               1.00000000E-03
     2      (1,11,7)             -1.89000000E-02
 -----------------------------------------------



1
  HEAD IN LAYER   1 AT END OF TIME STEP   1 IN STRESS PERIOD    4
  ---------------------------------------------------------------------------

                1               2               3               4               5               6               7               8               9              10
               11              12              13              14
 ................................................................................................................................................................
   1      250.000         250.000         250.000         250.000         250.000         250.000         250.000         250.000         250.000         250.000    
          250.000         250.000         250.000         250.000    
   2      85.0760         85.0763         85.0765         85.0766         85.0772         85.0790         85.0823         85.0788         85.0767         85.0760    
          85.0758         85.0758         85.0758         85.0758    
   3      21.7598         21.7619         21.7628         21.7634         21.7656         21.7740         21.7958         21.7729         21.7622         21.7592    
          21.7586         21.7585         21.7585         21.7585    
   4      4.71506         4.73112         4.73568         4.73746         4.74272         4.76989         4.90018         4.76440         4.72021         4.71083    
          4.70914         4.70886         4.70882         4.70881    
   5     0.935321         1.05581         1.07427         1.07755         1.08057         1.09050         1.11304         1.06901        0.935689        0.916762    
         0.914072        0.913691        0.913637        0.913630    
   6     0.167633        6.221226E-04    5.504702E-04    5.519448E-04    5.535733E-04    5.597937E-04    5.770775E-04    6.300307E-04    0.167321        0.164924    
         0.164292        0.164169        0.164149        0.164146    
   7     2.839233E-02    1.303389E-05    1.316853E-07    1.288680E-07    1.276332E-07    1.234367E-07    1.187936E-07    1.283019E-05    2.793833E-02    2.786201E-02
         2.785015E-02    2.785241E-02    2.785409E-02    2.785462E-02
   8     4.587905E-03    1.960872E-06   -3.936123E-07   -2.017517E-06   -8.955463E-06   -3.249264E-05   -7.903787E-05   -3.148689E-05    2.112227E-03    3.763169E-03
         4.342212E-03    4.487624E-03    4.518817E-03    4.524730E-03
   9     6.126407E-04   -7.176713E-05   -8.650353E-04   -4.229524E-03   -1.769210E-02   -5.962810E-02   -0.132875       -5.922482E-02   -1.490961E-02   -2.784702E-03
         2.326423E-05    5.993031E-04    7.077670E-04    7.266276E-04
  10     9.007732E-05   -2.331333E-04   -1.792613E-03   -1.012877E-02   -5.027470E-02   -0.210389       -0.626204       -0.210279       -4.985953E-02   -9.848908E-03
        -1.593224E-03   -6.698816E-05    1.980033E-04    2.424486E-04
  11     3.240249E-04   -6.326065E-05   -2.666477E-03   -1.885306E-02   -0.113279       -0.622938        -3.09366       -0.622829       -0.113045       -1.854578E-02
        -2.286370E-03    3.892983E-04    8.360640E-04    9.197991E-04
  12     2.364198E-03    2.261549E-03    9.834469E-04   -6.945198E-03   -4.635428E-02   -0.205100       -0.619392       -0.204541       -4.523399E-02   -5.273756E-03
         3.193264E-03    4.969255E-03    5.460438E-03    5.651584E-03
  13     1.412023E-02    1.495459E-02    1.580746E-02    1.471543E-02    5.336803E-03   -2.834352E-02   -9.072427E-02   -2.506104E-02    1.189895E-02    2.454249E-02
         2.884041E-02    3.097885E-02    3.249640E-02    3.345192E-02
  14     7.803703E-02    8.356648E-02    9.148793E-02    9.967813E-02    0.106291        0.108767        0.108597        0.127037        0.142820        0.154413    
         0.164181        0.173220        0.181336        0.186904    
  15     0.398234        0.429117        0.471966        0.517984        0.564409        0.610334        0.656122        0.704503        0.752716        0.800256    
         0.847318        0.893527        0.936425        0.967318    
  16      1.81817         1.97465         2.17889         2.39391         2.61097         2.82830         3.04570         3.26346         3.48121         3.69881    
          3.91599         4.13105         4.33530         4.49178    
  17      6.99560         7.68847         8.51253         9.35907         10.2092         11.0598         11.9105         12.7613         13.6121         14.4628    
          15.3129         16.1594         16.9835         17.6764    
  18      20.0000         22.5000         25.0000         27.5000         30.0000         32.5000         35.0000         37.5000         40.0000         42.5000    
          45.0000         47.5000         50.0000         52.5000    

 HEAD WILL BE SAVED ON UNIT 1025 AT END OF TIME STEP    1, STRESS PERIOD    4


  VOLUME BUDGET FOR ENTIRE MODEL AT END OF TIME STEP    1, STRESS PERIOD   4
  ---------------------------------------------------------------------------------------------------

     CUMULATIVE VOLUME      L**3       RATES FOR THIS TIME STEP      L**3/T          PACKAGE NAME    
     ------------------                 ------------------------                     ----------------

           IN:                                      IN:
           ---                                      ---
              STO-SS =           7.3483                STO-SS =       1.7749E-02     STORAGE                          
                 WEL =           0.4000                   WEL =       1.0000E-03     WEL-1                            
                 CHD =        1805.8397                   CHD =           3.8968     CHD-1                            

            TOTAL IN =        1813.5880              TOTAL IN =           3.9156

          OUT:                                     OUT:
          ----                                     ----
              STO-SS =        1806.0280                STO-SS =           3.8967     STORAGE                          
                 WEL =           7.5600                   WEL =       1.8900E-02     WEL-1                            
                 CHD =           0.0000                   CHD =           0.0000     CHD-1                            

           TOTAL OUT =        1813.5880             TOTAL OUT =           3.9156

            IN - OUT =       1.8703E-07              IN - OUT =       5.3743E-10

 PERCENT DISCREPANCY =           0.00     PERCENT DISCREPANCY =           0.00




         TIME SUMMARY AT END OF TIME STEP    1 IN STRESS PERIOD    4
                    SECONDS     MINUTES      HOURS       DAYS        YEARS
                    -----------------------------------------------------------
   TIME STEP LENGTH  100.00      1.6667     2.77778E-02 1.15741E-03 3.16881E-06
 STRESS PERIOD TIME  100.00      1.6667     2.77778E-02 1.15741E-03 3.16881E-06
         TOTAL TIME  400.00      6.6667     0.11111     4.62963E-03 1.26752E-05


end timestep


start timestep kper="5" kstp="1" mode="normal"


 OUTPUT CONTROL FOR STRESS PERIOD 5 IS REPEATED USING SETTINGS FROM A PREVIOUS STRESS PERIOD.


 STRESS PERIOD 5 IS TRANSIENT


 REUSING WELS FROM LAST STRESS PERIOD

 REUSING CHDS FROM LAST STRESS PERIOD
 UBDSV1 SAVING           STO-SS ON UNIT   1024 AT TIME STEP      1, STRESS PERIOD      5
 UBDSV1 SAVING     FLOW-JA-FACE ON UNIT   1024 AT TIME STEP      1, STRESS PERIOD      5
 UBDSV06 SAVING       DATA-SPDIS IN MODEL GWF-P09-MF6      PACKAGE NPF             CONNECTED TO MODEL GWF-P09-MF6      PACKAGE NPF              ON UNIT   1024 AT TIME STEP      1, STRESS PERIOD      5
 UBDSV06 SAVING              WEL IN MODEL GWF-P09-MF6      PACKAGE GWF-P09-MF6     CONNECTED TO MODEL GWF-P09-MF6      PACKAGE WEL-1            ON UNIT   1024 AT TIME STEP      1, STRESS PERIOD      5
 UBDSV06 SAVING              CHD IN MODEL GWF-P09-MF6      PACKAGE GWF-P09-MF6     CONNECTED TO MODEL GWF-P09-MF6      PACKAGE CHD-1            ON UNIT   1024 AT TIME STEP      1, STRESS PERIOD      5

 WEL PACKAGE (WEL-1) FLOW RATES   PERIOD      5   STEP        1
 -----------------------------------------------
   NUMBER   CELLID                    RATE      
 -----------------------------------------------
     1      (1,4,7)               1.00000000E-03
     2      (1,11,7)             -1.89000000E-02
 -----------------------------------------------



1
  HEAD IN LAYER   1 AT END OF TIME STEP   1 IN STRESS PERIOD    5
  ---------------------------------------------------------------------------

                1               2               3               4               5               6               7               8               9              10
               11              12              13              14
 ................................................................................................................................................................
   1      250.000         250.000         250.000         250.000         250.000         250.000         250.000         250.000         250.000         250.000    
          250.000         250.000         250.000         250.000    
   2      97.4338         97.4345         97.4348         97.4352         97.4361         97.4388         97.4430         97.4383         97.4349         97.4337    
          97.4333         97.4332         97.4332         97.4332    
   3      28.7055         28.7100         28.7121         28.7133         28.7166         28.7279         28.7533         28.7253         28.7090         28.7039    
          28.7026         28.7024         28.7023         28.7023    
   4      7.09414         7.12600         7.13577         7.13925         7.14669         7.17959         7.31815         7.16756         7.10053         7.08425    
          7.08098         7.08039         7.08029         7.08028    
   5      1.59117         1.81159         1.84861         1.85553         1.86044         1.87366         1.89785         1.82991         1.59010         1.55347    
          1.54787         1.54701         1.54688         1.54686    
   6     0.317276        1.248148E-03    1.094436E-03    1.097923E-03    1.100997E-03    1.111107E-03    1.135519E-03    1.261136E-03    0.316227        0.311228    
         0.309815        0.309523        0.309470        0.309462    
   7     5.922332E-02    3.063767E-05    2.972536E-07    2.899712E-07    2.871839E-07    2.782668E-07    2.705490E-07    3.012311E-05    5.819114E-02    5.796419E-02
         5.791065E-02    5.790912E-02    5.791196E-02    5.791312E-02
   8     1.045438E-02    5.003456E-06   -9.160905E-07   -4.381247E-06   -1.798283E-05   -6.014309E-05   -1.352895E-04   -5.717478E-05    5.741848E-03    8.748247E-03
         9.892650E-03    1.020378E-02    1.027578E-02    1.029040E-02
   9     1.506041E-03   -1.230824E-04   -1.776838E-03   -8.027742E-03   -3.066545E-02   -9.396160E-02   -0.191283       -9.308461E-02   -2.507786E-02   -4.785587E-03
         3.634913E-04    1.517457E-03    1.753773E-03    1.798085E-03
  10     2.478836E-04   -4.468428E-04   -3.369145E-03   -1.742508E-02   -7.808279E-02   -0.293051       -0.783444       -0.292792       -7.716713E-02   -1.675075E-02
        -2.862387E-03   -2.221126E-05    5.201427E-04    6.191294E-04
  11     7.550515E-04    7.111577E-06   -4.523424E-03   -2.972063E-02   -0.159847       -0.777514        -3.42341       -0.777264       -0.159310       -2.901174E-02
        -3.650417E-03    1.039725E-03    1.915363E-03    2.094668E-03
  12     4.934356E-03    4.721085E-03    2.390953E-03   -1.081543E-02   -7.000073E-02   -0.282441       -0.770265       -0.281276       -6.766886E-02   -7.339789E-03
         6.978687E-03    1.032883E-02    1.132917E-02    1.172015E-02
  13     2.676355E-02    2.823805E-02    2.973047E-02    2.781205E-02    1.267730E-02   -3.668643E-02   -0.117500       -3.049836E-02    2.504618E-02    4.632625E-02
         5.425743E-02    5.832855E-02    6.116733E-02    6.290734E-02
  14     0.132894        0.141856        0.154938        0.168507        0.179384        0.183918        0.185800        0.214848        0.241220        0.261128    
         0.277832        0.293108        0.306615        0.315668    
  15     0.602226        0.646800        0.710123        0.778844        0.848320        0.917012        0.985705         1.05860         1.13143         1.20311    
          1.27387         1.34301         1.40644         1.45104    
  16      2.41092         2.60981         2.87563         3.15817         3.44417         3.73069         4.01738         4.30471         4.59206         4.87912    
          5.16537         5.44800         5.71384         5.91275    
  17      8.04209         8.81505         9.75133         10.7190         11.6921         12.6662         13.6405         14.6149         15.5892         16.5634    
          17.5366         18.5043         19.4406         20.2135    
  18      20.0000         22.5000         25.0000         27.5000         30.0000         32.5000         35.0000         37.5000         40.0000         42.5000    
          45.0000         47.5000         50.0000         52.5000    

 HEAD WILL BE SAVED ON UNIT 1025 AT END OF TIME STEP    1, STRESS PERIOD    5


  VOLUME BUDGET FOR ENTIRE MODEL AT END OF TIME STEP    1, STRESS PERIOD   5
  ---------------------------------------------------------------------------------------------------

     CUMULATIVE VOLUME      L**3       RATES FOR THIS TIME STEP      L**3/T          PACKAGE NAME    
     ------------------                 ------------------------                     ----------------

           IN:                                      IN:
           ---                                      ---
              STO-SS =           9.0534                STO-SS =       1.7051E-02     STORAGE                          
                 WEL =           0.5000                   WEL =       1.0000E-03     WEL-1                            
                 CHD =        2166.3234                   CHD =           3.6048     CHD-1                            

            TOTAL IN =        2175.8768              TOTAL IN =           3.6229

          OUT:                                     OUT:
          ----                                     ----
              STO-SS =        2166.4268                STO-SS =           3.6040     STORAGE                          
                 WEL =           9.4500                   WEL =       1.8900E-02     WEL-1                            
                 CHD =           0.0000                   CHD =           0.0000     CHD-1                            

           TOTAL OUT =        2175.8768             TOTAL OUT =           3.6229

            IN - OUT =       2.3761E-07              IN - OUT =       5.0571E-10

 PERCENT DISCREPANCY =           0.00     PERCENT DISCREPANCY =           0.00




         TIME SUMMARY AT END OF TIME STEP    1 IN STRESS PERIOD    5
                    SECONDS     MINUTES      HOURS       DAYS        YEARS
                    -----------------------------------------------------------
   TIME STEP LENGTH  100.00      1.6667     2.77778E-02 1.15741E-03 3.16881E-06
 STRESS PERIOD TIME  100.00      1.6667     2.77778E-02 1.15741E-03 3.16881E-06
         TOTAL TIME  500.00      8.3333     0.13889     5.78704E-03 1.58440E-05


end timestep


start timestep kper="6" kstp="1" mode="normal"


 OUTPUT CONTROL FOR STRESS PERIOD 6 IS REPEATED USING SETTINGS FROM A PREVIOUS STRESS PERIOD.


 STRESS PERIOD 6 IS TRANSIENT


 REUSING WELS FROM LAST STRESS PERIOD

 REUSING CHDS FROM LAST STRESS PERIOD
 UBDSV1 SAVING           STO-SS ON UNIT   1024 AT TIME STEP      1, STRESS PERIOD      6
 UBDSV1 SAVING     FLOW-JA-FACE ON UNIT   1024 AT TIME STEP      1, STRESS PERIOD      6
 UBDSV06 SAVING       DATA-SPDIS IN MODEL GWF-P09-MF6      PACKAGE NPF             CONNECTED TO MODEL GWF-P09-MF6      PACKAGE NPF              ON UNIT   1024 AT TIME STEP      1, STRESS PERIOD      6
 UBDSV06 SAVING              WEL IN MODEL GWF-P09-MF6      PACKAGE GWF-P09-MF6     CONNECTED TO MODEL GWF-P09-MF6      PACKAGE WEL-1            ON UNIT   1024 AT TIME STEP      1, STRESS PERIOD      6
 UBDSV06 SAVING              CHD IN MODEL GWF-P09-MF6      PACKAGE GWF-P09-MF6     CONNECTED TO MODEL GWF-P09-MF6      PACKAGE CHD-1            ON UNIT   1024 AT TIME STEP      1, STRESS PERIOD      6

 WEL PACKAGE (WEL-1) FLOW RATES   PERIOD      6   STEP        1
 -----------------------------------------------
   NUMBER   CELLID                    RATE      
 -----------------------------------------------
     1      (1,4,7)               1.00000000E-03
     2      (1,11,7)             -1.89000000E-02
 -----------------------------------------------



1
  HEAD IN LAYER   1 AT END OF TIME STEP   1 IN STRESS PERIOD    6
  ---------------------------------------------------------------------------

                1               2               3               4               5               6               7               8               9              10
               11              12              13              14
 ................................................................................................................................................................
   1      250.000         250.000         250.000         250.000         250.000         250.000         250.000         250.000         250.000         250.000    
          250.000         250.000         250.000         250.000    
   2      107.758         107.759         107.760         107.760         107.762         107.765         107.770         107.764         107.759         107.757    
          107.757         107.756         107.756         107.756    
   3      35.5549         35.5634         35.5675         35.5697         35.5743         35.5882         35.6161         35.5830         35.5593         35.5510    
          35.5488         35.5484         35.5483         35.5482    
   4      9.81154         9.86747         9.88584         9.89205         9.90191         9.93955         10.0824         9.91645         9.81827         9.79175    
          9.78598         9.78485         9.78464         9.78461    
   5      2.44785         2.80794         2.87359         2.88649         2.89386         2.90994         2.93259         2.83122         2.44344         2.38017    
          2.36983         2.36814         2.36787         2.36783    
   6     0.536001        2.231280E-03    1.939912E-03    1.947148E-03    1.952392E-03    1.967231E-03    1.998332E-03    2.250351E-03    0.533405        0.524184    
         0.521410        0.520800        0.520684        0.520664    
   7     0.109107        6.305452E-05    5.919528E-07    5.755802E-07    5.700767E-07    5.533675E-07    5.430078E-07    6.192120E-05    0.107046        0.106504    
         0.106345        0.106327        0.106330        0.106332    
   8     2.085663E-02    1.109817E-05   -1.857578E-06   -8.361017E-06   -3.202129E-05   -9.977686E-05   -2.102029E-04   -9.249473E-05    1.288457E-02    1.774532E-02
         1.973341E-02    2.031391E-02    2.045790E-02    2.048902E-02
   9     3.219187E-03   -1.592162E-04   -3.203156E-03   -1.351765E-02   -4.769418E-02   -0.134706       -0.254800       -0.133018       -3.765328E-02   -7.101955E-03
         1.291368E-03    3.326933E-03    3.776762E-03    3.867097E-03
  10     5.825723E-04   -7.391598E-04   -5.615520E-03   -2.692752E-02   -0.110481       -0.378313       -0.928100       -0.377781       -0.108693       -2.550606E-02
        -4.497982E-03    2.016484E-04    1.179599E-03    1.372236E-03
  11     1.538305E-03    2.523705E-04   -6.832239E-03   -4.256250E-02   -0.208792       -0.918404        -3.68289       -0.917899       -0.207711       -4.112968E-02
        -5.075186E-03    2.316772E-03    3.841674E-03    4.179296E-03
  12     9.093769E-03    8.706476E-03    4.933094E-03   -1.482041E-02   -9.577986E-02   -0.359454       -0.905319       -0.357311       -9.149286E-02   -8.437405E-03
         1.334415E-02    1.896279E-02    2.075964E-02    2.146666E-02
  13     4.525506E-02    4.758460E-02    4.992510E-02    4.695675E-02    2.505492E-02   -4.078429E-02   -0.137864       -3.037376E-02    4.585998E-02    7.808227E-02
         9.111137E-02    9.800561E-02    0.102746        0.105584    
  14     0.204538        0.217704        0.237232        0.257550        0.273800        0.281324        0.286867        0.328665        0.368431        0.399236    
         0.425040        0.448382        0.468718        0.482068    
  15     0.836708        0.896035        0.982048         1.07630         1.17181         1.26625         1.36100         1.46190         1.56299         1.66235    
          1.76013         1.85518         1.94142         2.00080    
  16      3.00034         3.23856         3.56342         3.91185         4.26557         4.62017         4.97510         5.33107         5.68711         6.04267    
          6.39687         6.74548         7.07041         7.30864    
  17      8.92454         9.75998         10.7874         11.8553         12.9310         14.0082         15.0856         16.1632         17.2409         18.3182    
          19.3940         20.4619         21.4894         22.3248    
  18      20.0000         22.5000         25.0000         27.5000         30.0000         32.5000         35.0000         37.5000         40.0000         42.5000    
          45.0000         47.5000         50.0000         52.5000    

 HEAD WILL BE SAVED ON UNIT 1025 AT END OF TIME STEP    1, STRESS PERIOD    6


  VOLUME BUDGET FOR ENTIRE MODEL AT END OF TIME STEP    1, STRESS PERIOD   6
  ---------------------------------------------------------------------------------------------------

     CUMULATIVE VOLUME      L**3       RATES FOR THIS TIME STEP      L**3/T          PACKAGE NAME    
     ------------------                 ------------------------                     ----------------

           IN:                                      IN:
           ---                                      ---
              STO-SS =          10.6722                STO-SS =       1.6188E-02     STORAGE                          
                 WEL =           0.6000                   WEL =       1.0000E-03     WEL-1                            
                 CHD =        2502.4121                   CHD =           3.3609     CHD-1                            

            TOTAL IN =        2513.6843              TOTAL IN =           3.3781

          OUT:                                     OUT:
          ----                                     ----
              STO-SS =        2502.3443                STO-SS =           3.3592     STORAGE                          
                 WEL =          11.3400                   WEL =       1.8900E-02     WEL-1                            
                 CHD =           0.0000                   CHD =           0.0000     CHD-1                            

           TOTAL OUT =        2513.6843             TOTAL OUT =           3.3781

            IN - OUT =       2.8659E-07              IN - OUT =       4.8986E-10

 PERCENT DISCREPANCY =           0.00     PERCENT DISCREPANCY =           0.00




         TIME SUMMARY AT END OF TIME STEP    1 IN STRESS PERIOD    6
                    SECONDS     MINUTES      HOURS       DAYS        YEARS
                    -----------------------------------------------------------
   TIME STEP LENGTH  100.00      1.6667     2.77778E-02 1.15741E-03 3.16881E-06
 STRESS PERIOD TIME  100.00      1.6667     2.77778E-02 1.15741E-03 3.16881E-06
         TOTAL TIME  600.00      10.000     0.16667     6.94444E-03 1.90129E-05


end timestep


start timestep kper="7" kstp="1" mode="normal"


 OUTPUT CONTROL FOR STRESS PERIOD 7 IS REPEATED USING SETTINGS FROM A PREVIOUS STRESS PERIOD.


 STRESS PERIOD 7 IS TRANSIENT


 REUSING WELS FROM LAST STRESS PERIOD

 REUSING CHDS FROM LAST STRESS PERIOD
 UBDSV1 SAVING           STO-SS ON UNIT   1024 AT TIME STEP      1, STRESS PERIOD      7
 UBDSV1 SAVING     FLOW-JA-FACE ON UNIT   1024 AT TIME STEP      1, STRESS PERIOD      7
 UBDSV06 SAVING       DATA-SPDIS IN MODEL GWF-P09-MF6      PACKAGE NPF             CONNECTED TO MODEL GWF-P09-MF6      PACKAGE NPF              ON UNIT   1024 AT TIME STEP      1, STRESS PERIOD      7
 UBDSV06 SAVING              WEL IN MODEL GWF-P09-MF6      PACKAGE GWF-P09-MF6     CONNECTED TO MODEL GWF-P09-MF6      PACKAGE WEL-1            ON UNIT   1024 AT TIME STEP      1, STRESS PERIOD      7
 UBDSV06 SAVING              CHD IN MODEL GWF-P09-MF6      PACKAGE GWF-P09-MF6     CONNECTED TO MODEL GWF-P09-MF6      PACKAGE CHD-1            ON UNIT   1024 AT TIME STEP      1, STRESS PERIOD      7

 WEL PACKAGE (WEL-1) FLOW RATES   PERIOD      7   STEP        1
 -----------------------------------------------
   NUMBER   CELLID                    RATE      
 -----------------------------------------------
     1      (1,4,7)               1.00000000E-03
     2      (1,11,7)             -1.89000000E-02
 -----------------------------------------------



1
  HEAD IN LAYER   1 AT END OF TIME STEP   1 IN STRESS PERIOD    7
  ---------------------------------------------------------------------------

                1               2               3               4               5               6               7               8               9              10
               11              12              13              14
 ................................................................................................................................................................
   1      250.000         250.000         250.000         250.000         250.000         250.000         250.000         250.000         250.000         250.000    
          250.000         250.000         250.000         250.000    
   2      116.485         116.488         116.489         116.490         116.492         116.497         116.502         116.495         116.487         116.484    
          116.483         116.483         116.483         116.483    
   3      42.1779         42.1925         42.1998         42.2035         42.2096         42.2259         42.2552         42.2162         42.1828         42.1701    
          42.1665         42.1656         42.1654         42.1654    
   4      12.7882         12.8778         12.9092         12.9196         12.9321         12.9735         13.1173         12.9332         12.7937         12.7527    
          12.7432         12.7412         12.7408         12.7407    
   5      3.50288         4.04459         4.15091         4.17284         4.18333         4.20155         4.21884         4.07226         3.49240         3.39196    
          3.37452         3.37151         3.37099         3.37091    
   6     0.833420        3.665126E-03    3.161056E-03    3.174667E-03    3.183000E-03    3.203196E-03    3.239432E-03    3.690747E-03    0.828031        0.812508    
         0.807564        0.806416        0.806184        0.806143    
   7     0.183390        1.175210E-04    1.074234E-06    1.041085E-06    1.031248E-06    1.002686E-06    9.921346E-07    1.152679E-04    0.179649        0.178536    
         0.178160        0.178097        0.178096        0.178099    
   8     3.768182E-02    2.215655E-05   -3.396862E-06   -1.449985E-05   -5.221409E-05   -1.529153E-04   -3.047412E-04   -1.372724E-04    2.530233E-02    3.250924E-02
         3.564888E-02    3.662661E-02    3.688505E-02    3.694420E-02
   9     6.195084E-03   -1.234620E-04   -5.239538E-03   -2.085351E-02   -6.861245E-02   -0.180637       -0.321624       -0.177663       -5.195540E-02   -9.287592E-03
         3.274612E-03    6.544642E-03    7.319127E-03    7.484701E-03
  10     1.216159E-03   -1.083656E-03   -8.567454E-03   -3.851856E-02   -0.146399       -0.463642        -1.06057       -0.462649       -0.143203       -3.580673E-02
        -6.352675E-03    7.879986E-04    2.394451E-03    2.733542E-03
  11     2.835470E-03    8.029757E-04   -9.454751E-03   -5.689106E-02   -0.258494        -1.04586        -3.89305        -1.04494       -0.256522       -5.426637E-02
        -6.249308E-03    4.543536E-03    6.979019E-03    7.556939E-03
  12     1.528758E-02    1.465029E-02    9.044739E-03   -1.830517E-02   -0.122017       -0.432973        -1.02432       -0.429378       -0.114826       -7.610234E-03
         2.311273E-02    3.176339E-02    3.470573E-02    3.587308E-02
  13     7.039738E-02    7.379025E-02    7.718306E-02    7.300139E-02    4.370154E-02   -3.846412E-02   -0.149210       -2.234697E-02    7.590420E-02    0.121151    
         0.140820        0.151534        0.158821        0.163094    
  14     0.292686        0.310716        0.337821        0.366120        0.388790        0.400366        0.411313        0.467751        0.523467        0.567677    
         0.604715        0.637884        0.666380        0.684746    
  15      1.09497         1.16959         1.27969         1.40143         1.52509         1.64743         1.77062         1.90217         2.03434         2.16413    
          2.29144         2.41454         2.52506         2.59979    
  16      3.57472         3.84883         4.22919         4.64058         5.05944         5.47968         5.90051         6.32286         6.74540         7.16719    
          7.58689         7.99861         8.37908         8.65323    
  17      9.67709         10.5621         11.6644         12.8161         13.9783         15.1425         16.3071         17.4720         18.6369         19.8014    
          20.9637         22.1155         23.2178         24.1028    
  18      20.0000         22.5000         25.0000         27.5000         30.0000         32.5000         35.0000         37.5000         40.0000         42.5000    
          45.0000         47.5000         50.0000         52.5000    

 HEAD WILL BE SAVED ON UNIT 1025 AT END OF TIME STEP    1, STRESS PERIOD    7


  VOLUME BUDGET FOR ENTIRE MODEL AT END OF TIME STEP    1, STRESS PERIOD   7
  ---------------------------------------------------------------------------------------------------

     CUMULATIVE VOLUME      L**3       RATES FOR THIS TIME STEP      L**3/T          PACKAGE NAME    
     ------------------                 ------------------------                     ----------------

           IN:                                      IN:
           ---                                      ---
              STO-SS =          12.2002                STO-SS =       1.5279E-02     STORAGE                          
                 WEL =           0.7000                   WEL =       1.0000E-03     WEL-1                            
                 CHD =        2817.8781                   CHD =           3.1547     CHD-1                            

            TOTAL IN =        2830.7782              TOTAL IN =           3.1709

          OUT:                                     OUT:
          ----                                     ----
              STO-SS =        2817.5482                STO-SS =           3.1520     STORAGE                          
                 WEL =          13.2300                   WEL =       1.8900E-02     WEL-1                            
                 CHD =           0.0000                   CHD =           0.0000     CHD-1                            

           TOTAL OUT =        2830.7782             TOTAL OUT =           3.1709

            IN - OUT =       3.3151E-07              IN - OUT =       4.4915E-10

 PERCENT DISCREPANCY =           0.00     PERCENT DISCREPANCY =           0.00




         TIME SUMMARY AT END OF TIME STEP    1 IN STRESS PERIOD    7
                    SECONDS     MINUTES      HOURS       DAYS        YEARS
                    -----------------------------------------------------------
   TIME STEP LENGTH  100.00      1.6667     2.77778E-02 1.15741E-03 3.16881E-06
 STRESS PERIOD TIME  100.00      1.6667     2.77778E-02 1.15741E-03 3.16881E-06
         TOTAL TIME  700.00      11.667     0.19444     8.10185E-03 2.21817E-05


end timestep


start timestep kper="8" kstp="1" mode="normal"


 OUTPUT CONTROL FOR STRESS PERIOD 8 IS REPEATED USING SETTINGS FROM A PREVIOUS STRESS PERIOD.


 STRESS PERIOD 8 IS TRANSIENT


 REUSING WELS FROM LAST STRESS PERIOD

 REUSING CHDS FROM LAST STRESS PERIOD
 UBDSV1 SAVING           STO-SS ON UNIT   1024 AT TIME STEP      1, STRESS PERIOD      8
 UBDSV1 SAVING     FLOW-JA-FACE ON UNIT   1024 AT TIME STEP      1, STRESS PERIOD      8
 UBDSV06 SAVING       DATA-SPDIS IN MODEL GWF-P09-MF6      PACKAGE NPF             CONNECTED TO MODEL GWF-P09-MF6      PACKAGE NPF              ON UNIT   1024 AT TIME STEP      1, STRESS PERIOD      8
 UBDSV06 SAVING              WEL IN MODEL GWF-P09-MF6      PACKAGE GWF-P09-MF6     CONNECTED TO MODEL GWF-P09-MF6      PACKAGE WEL-1            ON UNIT   1024 AT TIME STEP      1, STRESS PERIOD      8
 UBDSV06 SAVING              CHD IN MODEL GWF-P09-MF6      PACKAGE GWF-P09-MF6     CONNECTED TO MODEL GWF-P09-MF6      PACKAGE CHD-1            ON UNIT   1024 AT TIME STEP      1, STRESS PERIOD      8

 WEL PACKAGE (WEL-1) FLOW RATES   PERIOD      8   STEP        1
 -----------------------------------------------
   NUMBER   CELLID                    RATE      
 -----------------------------------------------
     1      (1,4,7)               1.00000000E-03
     2      (1,11,7)             -1.89000000E-02
 -----------------------------------------------



1
  HEAD IN LAYER   1 AT END OF TIME STEP   1 IN STRESS PERIOD    8
  ---------------------------------------------------------------------------

                1               2               3               4               5               6               7               8               9              10
               11              12              13              14
 ................................................................................................................................................................
   1      250.000         250.000         250.000         250.000         250.000         250.000         250.000         250.000         250.000         250.000    
          250.000         250.000         250.000         250.000    
   2      123.946         123.950         123.952         123.954         123.957         123.962         123.968         123.958         123.948         123.943    
          123.942         123.941         123.941         123.941    
   3      48.5037         48.5268         48.5389         48.5447         48.5525         48.5708         48.6003         48.5542         48.5084         48.4896    
          48.4839         48.4824         48.4821         48.4820    
   4      15.9539         16.0880         16.1377         16.1541         16.1696         16.2137         16.3555         16.1487         15.9562         15.8956    
          15.8805         15.8772         15.8765         15.8764    
   5      4.74716         5.51262         5.67317         5.70792         5.72231         5.74168         5.74914         5.54371         4.72703         4.57769    
          4.55026         4.54524         4.54433         4.54418    
   6      1.21651        5.642646E-03    4.829825E-03    4.853534E-03    4.866104E-03    4.891992E-03    4.930511E-03    5.674481E-03     1.20657         1.18223    
          1.17406         1.17206         1.17164         1.17156    
   7     0.287234        2.028016E-04    1.814387E-06    1.752544E-06    1.736261E-06    1.690738E-06    1.685603E-06    1.986656E-04    0.280930        0.278881    
         0.278110        0.277953        0.277939        0.277941    
   8     6.303710E-02    4.073770E-05   -5.730229E-06   -2.335758E-05   -7.960634E-05   -2.207285E-04   -4.194546E-04   -1.903400E-04    4.501584E-02    5.502323E-02
         5.963066E-02    6.115149E-02    6.157769E-02    6.168056E-02
   9     1.098294E-02    7.922526E-05   -7.946941E-03   -3.009321E-02   -9.308882E-02   -0.230565       -0.390356       -0.225669       -6.707355E-02   -1.069378E-02
         6.936666E-03    1.182733E-02    1.306131E-02    1.334065E-02
  10     2.314585E-03   -1.423167E-03   -1.221043E-02   -5.198846E-02   -0.184849       -0.547430        -1.18191       -0.545711       -0.179513       -4.720134E-02
        -8.173252E-03    1.998972E-03    4.456092E-03    5.008377E-03
  11     4.835983E-03    1.820625E-03   -1.219807E-02   -7.218488E-02   -0.307741        -1.16084        -4.06736        -1.15927       -0.304404       -6.772938E-02
        -6.778584E-03    8.101283E-03    1.174242E-02    1.266147E-02
  12     2.394474E-02    2.297175E-02    1.517107E-02   -2.056957E-02   -0.147190       -0.500846        -1.12779       -0.495224       -0.135949       -3.870535E-03
         3.709627E-02    4.957902E-02    5.406699E-02    5.586413E-02
  13     0.102759        0.107406        0.112043        0.106564        6.961470E-02   -2.802738E-02   -0.149748       -4.606919E-03    0.116398        0.176471    
         0.204323        0.219917        0.230434        0.236488    
  14     0.396476        0.419903        0.455529        0.492861        0.522915        0.539675        0.557787        0.630499        0.704402        0.764343    
         0.814632        0.859264        0.897104        0.921097    
  15      1.37090         1.46096         1.59587         1.74628         1.89945         2.05114         2.20445         2.36854         2.53387         2.69609    
          2.85473         3.00730         3.14292         3.23316    
  16      4.12728         4.43389         4.86574         5.33647         5.81716         6.29985         6.78351         7.26929         7.75539         8.24043    
          8.72246         9.19376         9.62580         9.93247    
  17      10.3258         11.2507         12.4152         13.6378         14.8734         16.1119         17.3510         18.5905         19.8301         21.0690    
          22.3049         23.5276         24.6921         25.6171    
  18      20.0000         22.5000         25.0000         27.5000         30.0000         32.5000         35.0000         37.5000         40.0000         42.5000    
          45.0000         47.5000         50.0000         52.5000    

 HEAD WILL BE SAVED ON UNIT 1025 AT END OF TIME STEP    1, STRESS PERIOD    8


  VOLUME BUDGET FOR ENTIRE MODEL AT END OF TIME STEP    1, STRESS PERIOD   8
  ---------------------------------------------------------------------------------------------------

     CUMULATIVE VOLUME      L**3       RATES FOR THIS TIME STEP      L**3/T          PACKAGE NAME    
     ------------------                 ------------------------                     ----------------

           IN:                                      IN:
           ---                                      ---
              STO-SS =          13.6327                STO-SS =       1.4326E-02     STORAGE                          
                 WEL =           0.8000                   WEL =       1.0000E-03     WEL-1                            
                 CHD =        3115.7144                   CHD =           2.9784     CHD-1                            

            TOTAL IN =        3130.1472              TOTAL IN =           2.9937

          OUT:                                     OUT:
          ----                                     ----
              STO-SS =        3115.0272                STO-SS =           2.9748     STORAGE                          
                 WEL =          15.1200                   WEL =       1.8900E-02     WEL-1                            
                 CHD =           0.0000                   CHD =           0.0000     CHD-1                            

           TOTAL OUT =        3130.1472             TOTAL OUT =           2.9937

            IN - OUT =       3.7553E-07              IN - OUT =       4.4022E-10

 PERCENT DISCREPANCY =           0.00     PERCENT DISCREPANCY =           0.00




         TIME SUMMARY AT END OF TIME STEP    1 IN STRESS PERIOD    8
                    SECONDS     MINUTES      HOURS       DAYS        YEARS
                    -----------------------------------------------------------
   TIME STEP LENGTH  100.00      1.6667     2.77778E-02 1.15741E-03 3.16881E-06
 STRESS PERIOD TIME  100.00      1.6667     2.77778E-02 1.15741E-03 3.16881E-06
         TOTAL TIME  800.00      13.333     0.22222     9.25926E-03 2.53505E-05


end timestep


start timestep kper="9" kstp="1" mode="normal"


 OUTPUT CONTROL FOR STRESS PERIOD 9 IS REPEATED USING SETTINGS FROM A PREVIOUS STRESS PERIOD.


 STRESS PERIOD 9 IS TRANSIENT


 REUSING WELS FROM LAST STRESS PERIOD

 REUSING CHDS FROM LAST STRESS PERIOD
 UBDSV1 SAVING           STO-SS ON UNIT   1024 AT TIME STEP      1, STRESS PERIOD      9
 UBDSV1 SAVING     FLOW-JA-FACE ON UNIT   1024 AT TIME STEP      1, STRESS PERIOD      9
 UBDSV06 SAVING       DATA-SPDIS IN MODEL GWF-P09-MF6      PACKAGE NPF             CONNECTED TO MODEL GWF-P09-MF6      PACKAGE NPF              ON UNIT   1024 AT TIME STEP      1, STRESS PERIOD      9
 UBDSV06 SAVING              WEL IN MODEL GWF-P09-MF6      PACKAGE GWF-P09-MF6     CONNECTED TO MODEL GWF-P09-MF6      PACKAGE WEL-1            ON UNIT   1024 AT TIME STEP      1, STRESS PERIOD      9
 UBDSV06 SAVING              CHD IN MODEL GWF-P09-MF6      PACKAGE GWF-P09-MF6     CONNECTED TO MODEL GWF-P09-MF6      PACKAGE CHD-1            ON UNIT   1024 AT TIME STEP      1, STRESS PERIOD      9

 WEL PACKAGE (WEL-1) FLOW RATES   PERIOD      9   STEP        1
 -----------------------------------------------
   NUMBER   CELLID                    RATE      
 -----------------------------------------------
     1      (1,4,7)               1.00000000E-03
     2      (1,11,7)             -1.89000000E-02
 -----------------------------------------------



1
  HEAD IN LAYER   1 AT END OF TIME STEP   1 IN STRESS PERIOD    9
  ---------------------------------------------------------------------------

                1               2               3               4               5               6               7               8               9              10
               11              12              13              14
 ................................................................................................................................................................
   1      250.000         250.000         250.000         250.000         250.000         250.000         250.000         250.000         250.000         250.000    
          250.000         250.000         250.000         250.000    
   2      130.391         130.397         130.401         130.404         130.407         130.413         130.419         130.407         130.393         130.386    
          130.383         130.383         130.382         130.382    
   3      54.4993         54.5338         54.5527         54.5615         54.5711         54.5909         54.6195         54.5645         54.5029         54.4758    
          54.4672         54.4648         54.4643         54.4641    
   4      19.2494         19.4394         19.5135         19.5381         19.5571         19.6029         19.7393         19.5041         19.2457         19.1594    
          19.1369         19.1317         19.1306         19.1303    
   5      6.16726         7.19705         7.42647         7.47847         7.49768         7.51698         7.50953         7.23020         6.13305         5.92224    
          5.88144         5.87357         5.87208         5.87180    
   6      1.68966        8.253617E-03    7.014050E-03    7.052866E-03    7.071088E-03    7.102647E-03    7.139118E-03    8.290250E-03     1.67284         1.63680    
          1.62410         1.62083         1.62011         1.61997    
   7     0.425379        3.290630E-04    2.894131E-06    2.786096E-06    2.760752E-06    2.692066E-06    2.702422E-06    3.219410E-04    0.415364        0.411902    
         0.410479        0.410147        0.410101        0.410101    
   8     9.916254E-02    7.010005E-05   -9.058896E-06   -3.548510E-05   -1.151157E-04   -3.040682E-04   -5.545729E-04   -2.495136E-04    7.421027E-02    8.741502E-02
         9.379477E-02    9.601443E-02    9.667093E-02    9.683737E-02
   9     1.822844E-02    5.881807E-04   -1.134400E-02   -4.120728E-02   -0.120692       -0.283409       -0.459909       -0.275768       -8.193659E-02   -1.049217E-02
         1.304903E-02    1.996383E-02    2.181251E-02    2.225351E-02
  10     4.089980E-03   -1.665983E-03   -1.648206E-02   -6.706860E-02   -0.224971       -0.628700        -1.29333       -0.625894       -0.216531       -5.912835E-02
        -9.602428E-03    4.179455E-03    7.732180E-03    8.577766E-03
  11     7.752222E-03    3.492645E-03   -1.482951E-02   -8.792169E-02   -0.355623        -1.26445        -4.21471        -1.26193       -0.350307       -8.080356E-02
        -6.205759E-03    1.341722E-02    1.858483E-02    1.996329E-02
  12     3.545857E-02    3.405728E-02    2.374065E-02   -2.092859E-02   -0.169995       -0.561662        -1.21653       -0.553349       -0.153377        3.727916E-03
         5.605194E-02    7.317502E-02    7.964734E-02    8.226473E-02
  13     0.142679        0.148744        0.154802        0.148026        0.103517       -8.275828E-03   -0.138373        2.410497E-02    0.168182        0.244590    
         0.282111        0.303665        0.318109        0.326292    
  14     0.514662        0.543893        0.588782        0.636010        0.674317        0.697415        0.724377        0.814749        0.908728        0.986479    
[...]
  15      5.34027         5.59082         6.00288         6.49414         7.01518         7.55068         8.11450         8.72603         9.35718         9.97743    
          10.5661         11.0994         11.5334         11.7928    
  16      9.40062         9.93752         10.7652         11.7241         12.7360         13.7701         14.8208         15.8885         16.9626         18.0284    
          19.0670         20.0435         20.8807         21.4215    
  17      14.6819         15.8080         17.3139         18.9541         20.6422         22.3481         24.0627         25.7832         27.5051         29.2211    
          30.9181         32.5644         34.0737         35.2013    
  18      20.0000         22.5000         25.0000         27.5000         30.0000         32.5000         35.0000         37.5000         40.0000         42.5000    
          45.0000         47.5000         50.0000         52.5000    

 HEAD WILL BE SAVED ON UNIT 1025 AT END OF TIME STEP    1, STRESS PERIOD   22


  VOLUME BUDGET FOR ENTIRE MODEL AT END OF TIME STEP    1, STRESS PERIOD  22
  ---------------------------------------------------------------------------------------------------

     CUMULATIVE VOLUME      L**3       RATES FOR THIS TIME STEP      L**3/T          PACKAGE NAME    
     ------------------                 ------------------------                     ----------------

           IN:                                      IN:
           ---                                      ---
              STO-SS =          24.0096                STO-SS =       2.5431E-03     STORAGE                          
                 WEL =           2.2000                   WEL =       1.0000E-03     WEL-1                            
                 CHD =        6250.6777                   CHD =           1.8351     CHD-1                            

            TOTAL IN =        6276.8873              TOTAL IN =           1.8386

          OUT:                                     OUT:
          ----                                     ----
              STO-SS =        6235.3073                STO-SS =           1.8197     STORAGE                          
                 WEL =          41.5800                   WEL =       1.8900E-02     WEL-1                            
                 CHD =           0.0000                   CHD =           0.0000     CHD-1                            

           TOTAL OUT =        6276.8873             TOTAL OUT =           1.8386

            IN - OUT =       8.6547E-07              IN - OUT =       3.3857E-10

 PERCENT DISCREPANCY =           0.00     PERCENT DISCREPANCY =           0.00




         TIME SUMMARY AT END OF TIME STEP    1 IN STRESS PERIOD   22
                    SECONDS     MINUTES      HOURS       DAYS        YEARS
                    -----------------------------------------------------------
   TIME STEP LENGTH  100.00      1.6667     2.77778E-02 1.15741E-03 3.16881E-06
 STRESS PERIOD TIME  100.00      1.6667     2.77778E-02 1.15741E-03 3.16881E-06
         TOTAL TIME  2200.0      36.667     0.61111     2.54630E-02 6.97138E-05


end timestep


start timestep kper="23" kstp="1" mode="normal"


 OUTPUT CONTROL FOR STRESS PERIOD 23 IS REPEATED USING SETTINGS FROM A PREVIOUS STRESS PERIOD.


 STRESS PERIOD 23 IS TRANSIENT


 REUSING WELS FROM LAST STRESS PERIOD

 REUSING CHDS FROM LAST STRESS PERIOD
 UBDSV1 SAVING           STO-SS ON UNIT   1024 AT TIME STEP      1, STRESS PERIOD     23
 UBDSV1 SAVING     FLOW-JA-FACE ON UNIT   1024 AT TIME STEP      1, STRESS PERIOD     23
 UBDSV06 SAVING       DATA-SPDIS IN MODEL GWF-P09-MF6      PACKAGE NPF             CONNECTED TO MODEL GWF-P09-MF6      PACKAGE NPF              ON UNIT   1024 AT TIME STEP      1, STRESS PERIOD     23
 UBDSV06 SAVING              WEL IN MODEL GWF-P09-MF6      PACKAGE GWF-P09-MF6     CONNECTED TO MODEL GWF-P09-MF6      PACKAGE WEL-1            ON UNIT   1024 AT TIME STEP      1, STRESS PERIOD     23
 UBDSV06 SAVING              CHD IN MODEL GWF-P09-MF6      PACKAGE GWF-P09-MF6     CONNECTED TO MODEL GWF-P09-MF6      PACKAGE CHD-1            ON UNIT   1024 AT TIME STEP      1, STRESS PERIOD     23

 WEL PACKAGE (WEL-1) FLOW RATES   PERIOD     23   STEP        1
 -----------------------------------------------
   NUMBER   CELLID                    RATE      
 -----------------------------------------------
     1      (1,4,7)               1.00000000E-03
     2      (1,11,7)             -1.89000000E-02
 -----------------------------------------------



1
  HEAD IN LAYER   1 AT END OF TIME STEP   1 IN STRESS PERIOD   23
  ---------------------------------------------------------------------------

                1               2               3               4               5               6               7               8               9              10
               11              12              13              14
 ................................................................................................................................................................
   1      250.000         250.000         250.000         250.000         250.000         250.000         250.000         250.000         250.000         250.000    
          250.000         250.000         250.000         250.000    
   2      174.157         174.295         174.426         174.505         174.535         174.521         174.443         174.265         174.030         173.861    
          173.772         173.732         173.717         173.712    
   3      110.112         110.635         111.058         111.281         111.360         111.322         111.116         110.561         109.775         109.277    
          109.040         108.944         108.909         108.898    
   4      64.2510         66.1265         67.2605         67.7609         67.9164         67.8383         67.4590         65.9879         63.5782         62.3867    
          61.9123         61.7414         61.6842         61.6674    
   5      35.8525         42.7068         45.1887         46.0579         46.2859         46.1044         45.2215         42.4510         34.8708         32.6842    
          32.0108         31.7986         31.7325         31.7139    
   6      16.5809        0.146540        0.115616        0.117289        0.117753        0.117559        0.116083        0.145287         15.9396         15.3906    
          15.0935         14.9737         14.9317         14.9191    
   7      7.07071        1.376311E-02    1.201150E-04    1.103662E-04    1.097576E-04    1.080377E-04    1.156388E-04    1.320094E-02     6.72611         6.61321    
          6.53076         6.49193         6.47730         6.47287    
   8      2.74396        4.982888E-03   -1.796442E-04   -7.167906E-04   -1.659533E-03   -3.108184E-03   -4.307874E-03    1.483057E-03     2.47859         2.55235    
          2.59228         2.61059         2.61873         2.62186    
   9     0.810870        0.208796       -4.749724E-02   -0.274496       -0.588837       -0.981766        -1.21613       -0.707895        0.372145        0.768842    
         0.931992         1.00092         1.02934         1.03949    
  10     0.294214        0.126074       -3.863656E-02   -0.277677       -0.699028        -1.38633        -2.16458        -1.24780       -0.362317        0.124630    
         0.358808        0.464582        0.509937        0.526634    
  11     0.277089        0.214046        9.776725E-02   -0.144737       -0.679407        -1.89562        -4.98783        -1.80107       -0.485029        0.115996    
         0.396874        0.527946        0.588056        0.611864    
  12     0.593795        0.574731        0.518027        0.368697        3.773841E-02   -0.564089        -1.29555       -0.422545        0.318630        0.776150    
          1.03483         1.17839         1.25667         1.29224    
  13      1.37002         1.39891         1.43323         1.43284         1.35718         1.20706         1.12618         1.50590         1.95065         2.30887    
          2.56833         2.75134         2.87366         2.93713    
  14      2.90595         3.01484         3.19420         3.39742         3.59173         3.77929         4.02084         4.40855         4.84348         5.25307    
          5.61245         5.91380         6.14270         6.27140    
  15      5.58282         5.84043         6.26533         6.77337         7.31373         7.87063         8.45821         9.09584         9.75444         10.4018    
          11.0154         11.5700         12.0195         12.2873    
  16      9.64756         10.1922         11.0339         12.0113         13.0446         14.1019         15.1773         16.2710         17.3717         18.4635    
          19.5263         20.5235         21.3761         21.9253    
  17      14.8430         15.9743         17.4896         19.1423         20.8448         22.5662         24.2971         26.0344         27.7732         29.5058    
          31.2183         32.8780         34.3973         35.5302    
  18      20.0000         22.5000         25.0000         27.5000         30.0000         32.5000         35.0000         37.5000         40.0000         42.5000    
          45.0000         47.5000         50.0000         52.5000    

 HEAD WILL BE SAVED ON UNIT 1025 AT END OF TIME STEP    1, STRESS PERIOD   23


  VOLUME BUDGET FOR ENTIRE MODEL AT END OF TIME STEP    1, STRESS PERIOD  23
  ---------------------------------------------------------------------------------------------------

     CUMULATIVE VOLUME      L**3       RATES FOR THIS TIME STEP      L**3/T          PACKAGE NAME    
     ------------------                 ------------------------                     ----------------

           IN:                                      IN:
           ---                                      ---
              STO-SS =          24.2154                STO-SS =       2.0585E-03     STORAGE                          
                 WEL =           2.3000                   WEL =       1.0000E-03     WEL-1                            
                 CHD =        6430.0687                   CHD =           1.7939     CHD-1                            

            TOTAL IN =        6456.5841              TOTAL IN =           1.7970

          OUT:                                     OUT:
          ----                                     ----
              STO-SS =        6413.1141                STO-SS =           1.7781     STORAGE                          
                 WEL =          43.4700                   WEL =       1.8900E-02     WEL-1                            
                 CHD =           0.0000                   CHD =           0.0000     CHD-1                            

           TOTAL OUT =        6456.5841             TOTAL OUT =           1.7970

            IN - OUT =       8.9914E-07              IN - OUT =       3.3672E-10

 PERCENT DISCREPANCY =           0.00     PERCENT DISCREPANCY =           0.00




         TIME SUMMARY AT END OF TIME STEP    1 IN STRESS PERIOD   23
                    SECONDS     MINUTES      HOURS       DAYS        YEARS
                    -----------------------------------------------------------
   TIME STEP LENGTH  100.00      1.6667     2.77778E-02 1.15741E-03 3.16881E-06
 STRESS PERIOD TIME  100.00      1.6667     2.77778E-02 1.15741E-03 3.16881E-06
         TOTAL TIME  2300.0      38.333     0.63889     2.66204E-02 7.28826E-05


end timestep


start timestep kper="24" kstp="1" mode="normal"


 OUTPUT CONTROL FOR STRESS PERIOD 24 IS REPEATED USING SETTINGS FROM A PREVIOUS STRESS PERIOD.


 STRESS PERIOD 24 IS TRANSIENT


 REUSING WELS FROM LAST STRESS PERIOD

 REUSING CHDS FROM LAST STRESS PERIOD
 UBDSV1 SAVING           STO-SS ON UNIT   1024 AT TIME STEP      1, STRESS PERIOD     24
 UBDSV1 SAVING     FLOW-JA-FACE ON UNIT   1024 AT TIME STEP      1, STRESS PERIOD     24
 UBDSV06 SAVING       DATA-SPDIS IN MODEL GWF-P09-MF6      PACKAGE NPF             CONNECTED TO MODEL GWF-P09-MF6      PACKAGE NPF              ON UNIT   1024 AT TIME STEP      1, STRESS PERIOD     24
 UBDSV06 SAVING              WEL IN MODEL GWF-P09-MF6      PACKAGE GWF-P09-MF6     CONNECTED TO MODEL GWF-P09-MF6      PACKAGE WEL-1            ON UNIT   1024 AT TIME STEP      1, STRESS PERIOD     24
 UBDSV06 SAVING              CHD IN MODEL GWF-P09-MF6      PACKAGE GWF-P09-MF6     CONNECTED TO MODEL GWF-P09-MF6      PACKAGE CHD-1            ON UNIT   1024 AT TIME STEP      1, STRESS PERIOD     24

 WEL PACKAGE (WEL-1) FLOW RATES   PERIOD     24   STEP        1
 -----------------------------------------------
   NUMBER   CELLID                    RATE      
 -----------------------------------------------
     1      (1,4,7)               1.00000000E-03
     2      (1,11,7)             -1.89000000E-02
 -----------------------------------------------



1
  HEAD IN LAYER   1 AT END OF TIME STEP   1 IN STRESS PERIOD   24
  ---------------------------------------------------------------------------

                1               2               3               4               5               6               7               8               9              10
               11              12              13              14
 ................................................................................................................................................................
   1      250.000         250.000         250.000         250.000         250.000         250.000         250.000         250.000         250.000         250.000    
          250.000         250.000         250.000         250.000    
   2      175.819         175.972         176.121         176.211         176.244         176.226         176.134         175.931         175.666         175.474    
          175.371         175.324         175.305         175.299    
   3      112.754         113.329         113.801         114.053         114.141         114.092         113.850         113.230         112.359         111.800    
          111.530         111.418         111.376         111.363    
   4      67.0379         69.0623         70.3084         70.8672         71.0391         70.9403         70.4922         68.8827         66.2651         64.9516    
          64.4190         64.2232         64.1562         64.1361    
   5      38.2050         45.4906         48.1811         49.1415         49.3937         49.1827         48.1954         45.1830         37.0962         34.7237    
          33.9774         33.7367         33.6600         33.6379    
   6      18.0467        0.165127        0.129754        0.131703        0.132241        0.131985        0.130225        0.163569         17.3113         16.7063    
          16.3726         16.2351         16.1858         16.1707    
   7      7.86887        1.609392E-02    1.415206E-04    1.296246E-04    1.289406E-04    1.269546E-04    1.363559E-04    1.541435E-02     7.47125         7.34402    
          7.24902         7.20315         7.18538         7.17986    
   8      3.12163        5.973800E-03   -1.902555E-04   -8.006774E-04   -1.839679E-03   -3.405357E-03   -4.670117E-03    2.111050E-03     2.82859         2.90750    
          2.94924         2.96811         2.97654         2.97983    
   9     0.942827        0.252997       -3.916680E-02   -0.285891       -0.614251        -1.01438        -1.24111       -0.695267        0.487138        0.917569    
          1.09406         1.16903         1.20032         1.21164    
  10     0.349087        0.155690       -2.816762E-02   -0.282133       -0.716127        -1.41104        -2.18565        -1.24755       -0.322198        0.190588    
         0.439864        0.554170        0.604042        0.622672    
  11     0.321012        0.249769        0.123963       -0.128572       -0.673087        -1.89567        -4.98578        -1.78535       -0.446797        0.174594    
         0.470548        0.611534        0.677434        0.703876    
  12     0.662165        0.640767        0.580539        0.426634        9.089837E-02   -0.513093        -1.24027       -0.354617        0.405143        0.881578    
          1.15603         1.31106         1.39665         1.43575    
  13      1.48855         1.51860         1.55490         1.55673         1.48379         1.33863         1.26749         1.66285         2.12733         2.50580    
          2.78314         2.98015         3.11203         3.18035    
  14      3.08904         3.20217         3.38913         3.60214         3.80783         4.00896         4.26745         4.67594         5.13419         5.56720    
          5.94786         6.26670         6.50810         6.64334    
  15      5.81856         6.08279         6.51977         7.04370         7.60250         8.17999         8.79051         9.45336         10.1385         10.8121    
          11.4499         12.0248         12.4893         12.7649    
  16      9.88320         10.4349         11.2896         12.2844         13.3376         14.4168         15.5157         16.6340         17.7599         18.8764    
          19.9620         20.9788         21.8459         22.4029    
  17      14.9948         16.1307         17.6548         19.3189         21.0347         22.7705         24.5166         26.2697         28.0244         29.7726    
          31.4996         33.1716         34.7002         35.8381    
  18      20.0000         22.5000         25.0000         27.5000         30.0000         32.5000         35.0000         37.5000         40.0000         42.5000    
          45.0000         47.5000         50.0000         52.5000    

 HEAD WILL BE SAVED ON UNIT 1025 AT END OF TIME STEP    1, STRESS PERIOD   24


  VOLUME BUDGET FOR ENTIRE MODEL AT END OF TIME STEP    1, STRESS PERIOD  24
  ---------------------------------------------------------------------------------------------------

     CUMULATIVE VOLUME      L**3       RATES FOR THIS TIME STEP      L**3/T          PACKAGE NAME    
     ------------------                 ------------------------                     ----------------

           IN:                                      IN:
           ---                                      ---
              STO-SS =          24.3782                STO-SS =       1.6271E-03     STORAGE                          
                 WEL =           2.4000                   WEL =       1.0000E-03     WEL-1                            
                 CHD =        6605.5786                   CHD =           1.7551     CHD-1                            

            TOTAL IN =        6632.3568              TOTAL IN =           1.7577

          OUT:                                     OUT:
          ----                                     ----
              STO-SS =        6586.9968                STO-SS =           1.7388     STORAGE                          
                 WEL =          45.3600                   WEL =       1.8900E-02     WEL-1                            
                 CHD =           0.0000                   CHD =           0.0000     CHD-1                            

           TOTAL OUT =        6632.3568             TOTAL OUT =           1.7577

            IN - OUT =       9.3255E-07              IN - OUT =       3.3412E-10

 PERCENT DISCREPANCY =           0.00     PERCENT DISCREPANCY =           0.00




         TIME SUMMARY AT END OF TIME STEP    1 IN STRESS PERIOD   24
                    SECONDS     MINUTES      HOURS       DAYS        YEARS
                    -----------------------------------------------------------
   TIME STEP LENGTH  100.00      1.6667     2.77778E-02 1.15741E-03 3.16881E-06
 STRESS PERIOD TIME  100.00      1.6667     2.77778E-02 1.15741E-03 3.16881E-06
         TOTAL TIME  2400.0      40.000     0.66667     2.77778E-02 7.60514E-05


end timestep

