                                   MODFLOW 6
                U.S. GEOLOGICAL SURVEY MODULAR HYDROLOGIC MODEL
                       GROUNDWATER TRANSPORT MODEL (GWT)
                            VERSION 6.4.2 06/28/2023

   MODFLOW 6 compiled Jul 05 2023 20:29:14 with Intel(R) Fortran Intel(R) 64
   Compiler Classic for applications running on Intel(R) 64, Version 2021.7.0
                             Build 20220726_000000

This software has been approved for release by the U.S. Geological 
Survey (USGS). Although the software has been subjected to rigorous 
review, the USGS reserves the right to update the software as needed 
pursuant to further analysis and review. No warranty, expressed or 
implied, is made by the USGS or the U.S. Government as to the 
functionality of the software and related material nor shall the 
fact of release constitute any such warranty. Furthermore, the 
software is released on condition that neither the USGS nor the U.S. 
Government shall be held liable for any damages resulting from its 
authorized or unauthorized use. Also refer to the USGS Water 
Resources Software User Rights Notice for complete use, copyright, 
and distribution information.


As a work of the United States Government, this USGS product is 
in the public domain within the United States. You can copy, 
modify, distribute, and perform the work, even for commercial 
purposes, all without asking permission. Additionally, USGS 
waives copyright and related rights in the work worldwide 
through CC0 1.0 Universal Public Domain Dedication 
(https://creativecommons.org/publicdomain/zero/1.0/).

The following GNU Lesser General Public License (LGPL) libraries
are used in this USGS product:

    SPARSKIT version 2.0
      ilut, luson, and qsplit 
      (https://www-users.cse.umn.edu/~saad/software/SPARSKIT/)

    RCM - Reverse Cuthill McKee Ordering
      (https://people.math.sc.edu/Burkardt/f_src/rcm/rcm.html)

    BLAS - Basic Linear Algebra Subprograms Level 1
      (https://people.math.sc.edu/Burkardt/f_src/blas1_d/blas1_d.html)

    SPARSEKIT - Sparse Matrix Utility Package
      amux, dperm, dvperm, rperm, and cperm
      (https://people.sc.fsu.edu/~jburkardt/f77_src/sparsekit/sparsekit.html)

The following BSD-3 License libraries are used in this USGS product:

    Modern Fortran DAG Library
      Copyright (c) 2018, Jacob Williams
      All rights reserved.
      (https://github.com/jacobwilliams/daglib)

MODFLOW 6 compiler options: -Imac/obj_mf6 -O2 -no-heap-arrays -fpe0
-traceback -fpp -module mac/mod_mf6/ -c -o mac/obj_mf6/compilerversion.o

System command used to initiate simulation:
mf6

MODFLOW was compiled using uniform precision.

Real Variables
  KIND: 8
  TINY (smallest non-zero value):    2.225074-308
  HUGE (largest value):    1.797693+308
  PRECISION: 15
  SIZE IN BITS: 64

Integer Variables
  KIND: 4
  HUGE (largest value): 2147483647
  SIZE IN BITS: 32

Long Integer Variables
  KIND: 8
  HUGE (largest value): 9223372036854775807
  SIZE IN BITS: 64

Logical Variables
  KIND: 4
  SIZE IN BITS: 32
 
 NAMEFILE OPTIONS:
    FLOWS WILL BE SAVED TO BUDGET FILE SPECIFIED IN OUTPUT CONTROL
 END NAMEFILE OPTIONS:

 DIS -- STRUCTURED GRID DISCRETIZATION PACKAGE, VERSION 2 : 3/27/2014 - INPUT READ FROM MEMPATH: __INPUT__/GWT-P09-MF6/DIS                         


 DSP-- DISPERSION PACKAGE, VERSION 1, 1/24/2018 INPUT READ FROM MEMPATH: __INPUT__/GWT-P09-MF6/DSP                         


 Setting Discretization Options
 End Setting Discretization Options

 Setting Discretization Dimensions
    NLAY = 1
    NROW = 18
    NCOL = 14
 End Setting Discretization Dimensions

 Setting Discretization Griddata
    DELR set from input file
    DELC set from input file
    TOP set from input file
    BOTM set from input file
    IDOMAIN set from input file
 End Setting Discretization Griddata


 FMI -- FLOW MODEL INTERFACE, VERSION 1, 8/29/2017
  FLOWS PROVIDED BY A GWF MODEL IN THIS SIMULATION

 ADV-- ADVECTION PACKAGE, VERSION 1, 8/25/2017 INPUT READ FROM UNIT 1014


 # File generated by Flopy version 3.7.0.dev0 on 05/14/2024 at 15:14:54.
 PROCESSING ADVECTION OPTIONS
    ADVECTION WEIGHTING SCHEME HAS BEEN SET TO: UPSTREAM
 END OF ADVECTION OPTIONS
 Setting DSP Options
    XT3D formulation [0=INACTIVE, 1=ACTIVE, 3=ACTIVE RHS] set to: 1
 End Setting DSP Options

 Setting DSP Griddata
    ALH set from input file
    ATH1 set from input file
 End Setting DSP Griddata


 IC -- INITIAL CONDITIONS PACKAGE, VERSION 8, 3/28/2015 INPUT READ FROM UNIT 1012
 # File generated by Flopy version 3.7.0.dev0 on 05/14/2024 at 15:14:54.
 PROCESSING GRIDDATA

 INITIAL CONCENTRATION =   0.000000    
 END PROCESSING GRIDDATA

 MST -- MOBILE STORAGE AND TRANSFER PACKAGE, VERSION 1, 7/29/2020 INPUT READ FROM UNIT 1013


 # File generated by Flopy version 3.7.0.dev0 on 05/14/2024 at 15:14:54.
 PROCESSING MOBILE STORAGE AND TRANSFER OPTIONS
 END OF MOBILE STORAGE AND TRANSFER OPTIONS
 PROCESSING GRIDDATA

   MOBILE DOMAIN POROSITY =  0.3000000E-02
 END PROCESSING GRIDDATA

 SSM -- SOURCE-SINK MIXING PACKAGE, VERSION 1, 8/25/2017 INPUT READ FROM UNIT 1016


 # File generated by Flopy version 3.7.0.dev0 on 05/14/2024 at 15:14:54.
 PROCESSING SSM OPTIONS
    SSM FLOW INFORMATION WILL BE PRINTED TO LISTING FILE WHENEVER ICBCFL IS NOT ZERO.
 END OF SSM OPTIONS
 PROCESSING SOURCES
 AUX SOURCE DETECTED.
    USING AUX COLUMN 1 IN PACKAGE WEL-1
 AUX SOURCE DETECTED.
    USING AUX COLUMN 1 IN PACKAGE CHD-1
 END PROCESSING SOURCES
 OPTIONAL FILEINPUT BLOCK NOT FOUND.  CONTINUING.
      THE LAST TIME STEP WILL BE PRINTED
      THE LAST TIME STEP WILL BE PRINTED
 # File generated by Flopy version 3.7.0.dev0 on 05/14/2024 at 15:14:54.

 PROCESSING OC OPTIONS

    BUDGET INFORMATION WILL BE WRITTEN TO:
      UNIT NUMBER: 1026
      FILE NAME: gwt-p09-mf6.cbc

 OPENED gwt-p09-mf6.cbc
 FILE TYPE:DATA(BINARY)   UNIT 1026   STATUS:REPLACE             
 FORMAT:UNFORMATTED            ACCESS:STREAM              
 ACTION:READWRITE           

    CONCENTRATION INFORMATION WILL BE WRITTEN TO:
      UNIT NUMBER: 1027
      FILE NAME: gwt-p09-mf6.ucn

 OPENED gwt-p09-mf6.ucn
 FILE TYPE:DATA(BINARY)   UNIT 1027   STATUS:REPLACE             
 FORMAT:UNFORMATTED            ACCESS:STREAM              
 ACTION:READWRITE           

 END OF OC OPTIONS

start timestep kper="1" kstp="1" mode="normal"


 BEGIN READING OUTPUT CONTROL FOR STRESS PERIOD 1
      THE LAST TIME STEP WILL BE SAVED
      THE LAST TIME STEP WILL BE SAVED
      THE LAST TIME STEP WILL BE PRINTED
      THE LAST TIME STEP WILL BE PRINTED

 END READING OUTPUT CONTROL FOR STRESS PERIOD 1

 XT3D is active.


 UBDSV1 SAVING     FLOW-JA-FACE ON UNIT   1026 AT TIME STEP      1, STRESS PERIOD      1
 UBDSV1 SAVING  STORAGE-AQUEOUS ON UNIT   1026 AT TIME STEP      1, STRESS PERIOD      1
 UBDSV06 SAVING  SOURCE-SINK MIX IN MODEL GWT-P09-MF6      PACKAGE GWT-P09-MF6     CONNECTED TO MODEL GWT-P09-MF6      PACKAGE SSM              ON UNIT   1026 AT TIME STEP      1, STRESS PERIOD      1

 SSM PACKAGE (SSM) FLOW RATES   PERIOD      1   STEP        1
 ------------------------------------------------------------------------------------------------
   NUMBER   CELLID                   BOUND Q        SSM CONC          RATE         PACKAGE NAME  
 ------------------------------------------------------------------------------------------------
     1      (1,4,7)               1.00000000E-03  57.870000       5.78700000E-02      WEL-1      
     2      (1,11,7)             -1.89000000E-02  5.31355472E-46 -1.00426184E-47      WEL-1      
     1      (1,1,1)               0.32599175      0.0000000       0.0000000           CHD-1      
     2      (1,18,1)              2.23494395E-02  0.0000000       0.0000000           CHD-1      
     3      (1,1,2)               0.32599174      0.0000000       0.0000000           CHD-1      
     4      (1,18,2)              2.93349287E-02  0.0000000       0.0000000           CHD-1      
     5      (1,1,3)               0.32599174      0.0000000       0.0000000           CHD-1      
     6      (1,18,3)              3.25987540E-02  0.0000000       0.0000000           CHD-1      
     7      (1,1,4)               0.32599173      0.0000000       0.0000000           CHD-1      
     8      (1,18,4)              3.58590514E-02  0.0000000       0.0000000           CHD-1      
     9      (1,1,5)               0.32599169      0.0000000       0.0000000           CHD-1      
     10     (1,18,5)              3.91190064E-02  0.0000000       0.0000000           CHD-1      
     11     (1,1,6)               0.32599149      0.0000000       0.0000000           CHD-1      
     12     (1,18,6)              4.23789283E-02  0.0000000       0.0000000           CHD-1      
     13     (1,1,7)               0.32599083      0.0000000       0.0000000           CHD-1      
     14     (1,18,7)              4.56388471E-02  0.0000000       0.0000000           CHD-1      
     15     (1,1,8)               0.32599149      0.0000000       0.0000000           CHD-1      
     16     (1,18,8)              4.88987638E-02  0.0000000       0.0000000           CHD-1      
     17     (1,1,9)               0.32599170      0.0000000       0.0000000           CHD-1      
     18     (1,18,9)              5.21586810E-02  0.0000000       0.0000000           CHD-1      
     19     (1,1,10)              0.32599174      0.0000000       0.0000000           CHD-1      
     20     (1,18,10)             5.54186019E-02  0.0000000       0.0000000           CHD-1      
     21     (1,1,11)              0.32599175      0.0000000       0.0000000           CHD-1      
     22     (1,18,11)             5.86785566E-02  0.0000000       0.0000000           CHD-1      
     23     (1,1,12)              0.32599175      0.0000000       0.0000000           CHD-1      
     24     (1,18,12)             6.19388539E-02  0.0000000       0.0000000           CHD-1      
     25     (1,1,13)              0.32599175      0.0000000       0.0000000           CHD-1      
     26     (1,18,13)             6.52026792E-02  0.0000000       0.0000000           CHD-1      
     27     (1,1,14)              0.32599175      0.0000000       0.0000000           CHD-1      
     28     (1,18,14)             7.21881684E-02  0.0000000       0.0000000           CHD-1      
 ------------------------------------------------------------------------------------------------



1
  CONCENTRATION IN LAYER   1 AT END OF TIME STEP   1 IN STRESS PERIOD    1
  ---------------------------------------------------------------------------

                1               2               3               4               5               6               7               8               9              10
               11              12              13              14
 ................................................................................................................................................................
   1     3.234233E-24    8.145038E-22    2.015787E-19    4.798284E-17    1.057006E-14    1.938505E-12    1.841468E-10    1.944336E-12    6.641645E-15    7.286143E-18
         9.674067E-23    7.051167E-27    2.030420E-29    7.497146E-32
   2     7.054427E-24    2.993238E-21    1.272915E-18    5.408419E-16    2.280504E-13    8.968458E-11    1.340554E-08    9.011144E-11    1.377810E-13    1.802624E-18
         3.764606E-23    2.652544E-26    6.282666E-29    1.563685E-31
   3     4.107783E-26    1.475098E-22    5.298867E-19    1.903387E-15    6.831140E-12    2.374843E-08    5.538909E-06    2.392244E-08    3.131063E-13    4.666282E-18
         1.276901E-22    5.603151E-27    1.553430E-30    2.743511E-33
   4     4.419500E-29    1.364688E-24    4.234864E-20    1.314339E-15    4.049154E-11    1.159448E-06    1.927769E-02    1.160229E-06    4.076068E-11    1.326367E-15
         4.280148E-20    1.379963E-24    4.448954E-29    1.439031E-33
   5    -1.691478E-36   -2.913442E-31   -8.517156E-26   -2.567715E-20   -7.596431E-15   -1.961625E-09    4.391267E-06   -2.151147E-09   -1.571264E-13   -2.786886E-18
        -1.024929E-23    2.092147E-28    9.583035E-33    3.233031E-37
   6    -2.887145E-41   -1.029109E-39    1.112393E-35    1.560390E-29    1.519688E-20   -2.894816E-16    2.909706E-13   -4.151093E-16    2.204808E-17    2.106889E-22
         1.959394E-27    7.048544E-33    2.202437E-37    7.531081E-42
   7    -7.781224E-47    5.453705E-48    9.878128E-47    1.138916E-38    1.307944E-31   -3.018257E-27    2.949974E-24    1.256907E-25    5.972056E-23   -1.963318E-27
         1.101329E-33    2.001866E-38    5.943425E-43    2.011906E-47
   8    -2.416910E-53    1.954297E-59    3.405274E-53    3.882381E-46   -3.495865E-41   -6.523527E-39    1.145690E-35   -3.862096E-34    2.322086E-29    2.224895E-32
        -1.178692E-36    1.718961E-43    7.618738E-49    8.962798E-54
   9    -8.789176E-61    9.204720E-63    3.174183E-55   -2.512926E-49   -3.290837E-46   -1.109888E-45    4.953193E-41   -8.492341E-37    1.017574E-35    1.894128E-37
         2.269542E-41   -3.028948E-46    2.158556E-53    1.587155E-59
  10    -2.970773E-69    7.941962E-65   -7.105555E-58   -9.920773E-54   -8.541680E-52    1.516767E-47    9.779947E-43   -1.335861E-41    1.648791E-41    3.551297E-43
         5.942933E-46    5.797522E-51   -3.831979E-57    3.488174E-64
  11     1.783015E-74   -1.232404E-67   -1.395255E-62   -2.926436E-60    1.328239E-53    1.127323E-48    5.313555E-46   -7.450224E-46    7.744321E-47    3.929676E-49
         5.654839E-52    1.557496E-55    2.151767E-60   -6.855349E-67
  12    -1.351425E-76   -3.343138E-71   -5.872541E-68    1.170695E-61    3.200319E-55    9.167496E-54    8.697385E-52   -5.839131E-51   -1.482380E-52    2.134069E-54
         2.025560E-57    2.405269E-60    1.344016E-64    5.629872E-70
  13     1.620596E-80    7.113696E-78    9.753968E-70    1.267683E-62    1.428737E-60    3.200389E-58    1.053773E-56   -1.267798E-56   -9.778759E-58   -7.033795E-60
         3.000957E-62    6.553684E-66    3.350025E-69    1.514991E-73
  14    -2.676757E-83   -5.547183E-77   -9.189321E-71    1.229630E-68    1.714416E-65    1.889088E-63    4.436035E-62   -2.193476E-62   -1.740895E-63   -2.988372E-65
        -7.382601E-68    3.356084E-70    6.871748E-74    3.253276E-77
  15     3.352193E-83    7.570152E-78   -1.371475E-75   -1.418866E-72   -8.111822E-71    5.604356E-69    2.492023E-67   -1.100510E-67   -1.159555E-68   -3.358426E-70
        -3.238454E-72   -4.703369E-75    3.002093E-77    6.468224E-81
  16    -5.728874E-84    1.232935E-81    1.029248E-78    1.623508E-77   -7.074895E-75    2.095235E-74    1.018177E-71   -4.557128E-72   -6.248121E-73   -2.588203E-74
        -4.403350E-76   -2.875469E-78   -2.074531E-81    2.449621E-83
  17    -1.155562E-86   -6.218420E-84    1.682137E-82    4.994516E-80   -2.276040E-78   -5.876198E-77    3.580711E-75   -1.626185E-75   -2.812050E-76   -1.541606E-77
        -3.836844E-79   -4.578862E-81   -2.269083E-83   -1.348357E-86
  18     5.942324E-88   -3.041280E-86   -4.262344E-84    3.096489E-82    1.044211E-81   -4.600129E-79    7.770074E-78   -3.293697E-78   -8.555285E-79   -6.995436E-80
        -2.718236E-81   -5.547130E-83   -5.900518E-85   -3.051879E-87

 CONCENTRATION WILL BE SAVED ON UNIT 1027 AT END OF TIME STEP    1, STRESS PERIOD    1


  MASS BUDGET FOR ENTIRE MODEL AT END OF TIME STEP    1, STRESS PERIOD   1
  ---------------------------------------------------------------------------------------------------

     CUMULATIVE MASS      M       RATES FOR THIS TIME STEP      M/T          PACKAGE NAME    
     ------------------                 ------------------------                     ----------------

           IN:                                      IN:
           ---                                      ---
     STORAGE-AQUEOUS =       1.2339E-06       STORAGE-AQUEOUS =       1.2339E-08     MST                              
                 WEL =           5.7870                   WEL =       5.7870E-02     SSM_WEL-1                        
                 CHD =           0.0000                   CHD =           0.0000     SSM_CHD-1                        

            TOTAL IN =           5.7870              TOTAL IN =       5.7870E-02

          OUT:                                     OUT:
          ----                                     ----
     STORAGE-AQUEOUS =           5.7870       STORAGE-AQUEOUS =       5.7870E-02     MST                              
                 WEL =       1.0043E-45                   WEL =       1.0043E-47     SSM_WEL-1                        
                 CHD =           0.0000                   CHD =           0.0000     SSM_CHD-1                        

           TOTAL OUT =           5.7870             TOTAL OUT =       5.7870E-02

            IN - OUT =       1.8367E-09              IN - OUT =       1.8367E-11

 PERCENT DISCREPANCY =           0.00     PERCENT DISCREPANCY =           0.00




         TIME SUMMARY AT END OF TIME STEP    1 IN STRESS PERIOD    1
                    SECONDS     MINUTES      HOURS       DAYS        YEARS
                    -----------------------------------------------------------
   TIME STEP LENGTH  100.00      1.6667     2.77778E-02 1.15741E-03 3.16881E-06
 STRESS PERIOD TIME  100.00      1.6667     2.77778E-02 1.15741E-03 3.16881E-06
         TOTAL TIME  100.00      1.6667     2.77778E-02 1.15741E-03 3.16881E-06


end timestep


start timestep kper="2" kstp="1" mode="normal"


 END OF FILE DETECTED IN OUTPUT CONTROL.
 CURRENT OUTPUT CONTROL SETTINGS WILL BE 
 REPEATED UNTIL THE END OF THE SIMULATION.

 OUTPUT CONTROL FOR STRESS PERIOD 2 IS REPEATED USING SETTINGS FROM A PREVIOUS STRESS PERIOD.
 UBDSV1 SAVING     FLOW-JA-FACE ON UNIT   1026 AT TIME STEP      1, STRESS PERIOD      2
 UBDSV1 SAVING  STORAGE-AQUEOUS ON UNIT   1026 AT TIME STEP      1, STRESS PERIOD      2
 UBDSV06 SAVING  SOURCE-SINK MIX IN MODEL GWT-P09-MF6      PACKAGE GWT-P09-MF6     CONNECTED TO MODEL GWT-P09-MF6      PACKAGE SSM              ON UNIT   1026 AT TIME STEP      1, STRESS PERIOD      2

 SSM PACKAGE (SSM) FLOW RATES   PERIOD      2   STEP        1
 ------------------------------------------------------------------------------------------------
   NUMBER   CELLID                   BOUND Q        SSM CONC          RATE         PACKAGE NAME  
 ------------------------------------------------------------------------------------------------
     1      (1,4,7)               1.00000000E-03  0.0000000       0.0000000           WEL-1      
     2      (1,11,7)             -1.89000000E-02  1.41089073E-42 -2.66658347E-44      WEL-1      
     1      (1,1,1)               0.29227625      0.0000000       0.0000000           CHD-1      
     2      (1,18,1)              1.95832990E-02  0.0000000       0.0000000           CHD-1      
     3      (1,1,2)               0.29227621      0.0000000       0.0000000           CHD-1      
     4      (1,18,2)              2.62909373E-02  0.0000000       0.0000000           CHD-1      
     5      (1,1,3)               0.29227619      0.0000000       0.0000000           CHD-1      
     6      (1,18,3)              2.92259803E-02  0.0000000       0.0000000           CHD-1      
     7      (1,1,4)               0.29227615      0.0000000       0.0000000           CHD-1      
     8      (1,18,4)              3.21502003E-02  0.0000000       0.0000000           CHD-1      
     9      (1,1,5)               0.29227598      0.0000000       0.0000000           CHD-1      
     10     (1,18,5)              3.50731341E-02  0.0000000       0.0000000           CHD-1      
     11     (1,1,6)               0.29227525      0.0000000       0.0000000           CHD-1      
     12     (1,18,6)              3.79959205E-02  0.0000000       0.0000000           CHD-1      
     13     (1,1,7)               0.29227340      0.0000000       0.0000000           CHD-1      
     14     (1,18,7)              4.09186900E-02  0.0000000       0.0000000           CHD-1      
     15     (1,1,8)               0.29227527      0.0000000       0.0000000           CHD-1      
     16     (1,18,8)              4.38414487E-02  0.0000000       0.0000000           CHD-1      
     17     (1,1,9)               0.29227604      0.0000000       0.0000000           CHD-1      
     18     (1,18,9)              4.67642094E-02  0.0000000       0.0000000           CHD-1      
     19     (1,1,10)              0.29227623      0.0000000       0.0000000           CHD-1      
     20     (1,18,10)             4.96869896E-02  0.0000000       0.0000000           CHD-1      
     21     (1,1,11)              0.29227627      0.0000000       0.0000000           CHD-1      
     22     (1,18,11)             5.26099208E-02  0.0000000       0.0000000           CHD-1      
     23     (1,1,12)              0.29227627      0.0000000       0.0000000           CHD-1      
     24     (1,18,12)             5.55341400E-02  0.0000000       0.0000000           CHD-1      
     25     (1,1,13)              0.29227628      0.0000000       0.0000000           CHD-1      
     26     (1,18,13)             5.84691828E-02  0.0000000       0.0000000           CHD-1      
     27     (1,1,14)              0.29227628      0.0000000       0.0000000           CHD-1      
     28     (1,18,14)             6.51768211E-02  0.0000000       0.0000000           CHD-1      
 ------------------------------------------------------------------------------------------------



1
  CONCENTRATION IN LAYER   1 AT END OF TIME STEP   1 IN STRESS PERIOD    2
  ---------------------------------------------------------------------------

                1               2               3               4               5               6               7               8               9              10
               11              12              13              14
 ................................................................................................................................................................
   1     2.728352E-23    6.714828E-21    1.614772E-18    3.706174E-16    7.791851E-14    1.349835E-11    1.292960E-09    1.356751E-11    5.827882E-14    1.612711E-16
         4.325161E-19    1.299297E-21    4.163701E-24    1.377563E-26
   2     7.108582E-23    2.800598E-20    1.102567E-17    4.302115E-15    1.633525E-12    5.519270E-10    8.571192E-08    5.567917E-10    1.265811E-12    2.003696E-15
         3.880860E-18    8.615114E-21    1.984402E-23    4.656022E-26
   3     3.571208E-24    6.152594E-21    1.180981E-17    2.281526E-14    4.250001E-11    6.944484E-08    1.882723E-05    7.055960E-08    3.699554E-11    1.733732E-14
         8.542367E-18    4.403289E-21    2.657704E-24    2.471642E-27
   4     2.230822E-26    2.234034E-22    2.631041E-18    3.121545E-14    3.589858E-10    3.595007E-06    1.918445E-02    3.600774E-06    3.640269E-10    3.183004E-14
         2.712520E-18    2.443631E-22    3.163693E-26    1.322532E-29
   5     6.318826E-31    8.949208E-27    1.802408E-22   -3.755683E-18   -5.031731E-13   -3.587372E-09    1.749610E-05   -4.877161E-09   -1.656709E-12   -1.015964E-16
        -5.288694E-22    1.433293E-25    2.240672E-29    8.938978E-33
   6    -1.288746E-33   -3.406005E-32    2.263488E-29    3.144091E-24    1.058357E-20   -3.305964E-15    4.959238E-12   -6.693480E-15    1.796490E-16    7.732007E-21
         4.197250E-25    1.467171E-29    2.110553E-33    8.424949E-37
   7    -1.693325E-38    6.969705E-41    1.118173E-39    1.416839E-34    5.910683E-31   -2.090470E-25    2.540219E-22    1.501474E-23    2.432920E-21   -4.664053E-26
         3.963829E-30    1.855765E-34    2.742625E-38    1.091325E-41
   8    -2.982250E-44    5.350173E-51    2.893989E-48    1.083478E-44   -1.138113E-38   -2.336131E-36    4.424235E-33   -5.866734E-32    5.183013E-27    4.857644E-30
        -1.387461E-34    3.876660E-39    8.202875E-44    1.986495E-47
   9    -7.023385E-51    3.881180E-53    2.669806E-53   -3.364655E-46   -4.133969E-43   -1.992469E-42    1.225993E-38   -6.774809E-34    1.014417E-32    1.806045E-34
         2.554624E-38   -2.312460E-43    2.932539E-48    1.540967E-53
  10    -1.684738E-58    4.414264E-60   -4.109085E-54   -4.546555E-50   -3.954104E-48    3.181295E-44    1.621089E-39   -3.202057E-38    5.758211E-38    1.321724E-39
         2.471083E-42    3.228032E-47   -1.618028E-53    2.602947E-58
  11    -4.651978E-67   -3.799495E-63   -2.746303E-58    3.613024E-56    9.871457E-50    3.913161E-45    1.410891E-42   -3.958450E-42    7.693860E-43    4.922024E-45
         9.541247E-48    3.868410E-51    7.306254E-56   -1.610936E-62
  12    -2.141423E-71   -3.386224E-66   -4.658488E-63    3.304040E-57    3.189166E-51    6.988947E-50    9.722074E-48   -6.451911E-47   -1.434117E-48    8.026828E-50
         1.336556E-52    1.967565E-55    1.746077E-59    1.114084E-64
  13     6.886344E-75    9.547948E-72    1.207814E-64    5.054172E-58    3.938460E-56    1.049101E-53    2.803576E-52   -4.198900E-52   -3.763604E-53   -2.397071E-55
         5.011895E-57    2.189222E-60    1.405122E-63    9.921293E-68
  14    -5.345862E-77   -3.101396E-71   -1.469142E-65    1.701056E-63    1.958996E-60    1.660583E-58    3.493614E-57   -2.445167E-57   -2.366558E-58   -4.790453E-60
        -1.160470E-64    2.449860E-64    9.779728E-68    5.729006E-71
  15     5.115995E-77    4.148292E-72   -6.745693E-70   -5.579085E-67   -1.932181E-65    1.651299E-63    6.291862E-62   -4.045530E-62   -5.033682E-63   -1.681277E-64
        -1.570514E-66    4.984452E-69    7.623610E-71    3.188992E-74
  16    -8.300835E-78    1.647393E-75    1.080846E-72   -4.278763E-72   -5.024672E-69    2.339160E-68    6.334778E-66   -4.147537E-66   -6.579429E-67   -3.121395E-68
        -5.671783E-70   -2.755940E-72    2.075106E-74    1.695061E-76
  17    -2.841089E-80   -1.204488E-77    5.164454E-76    5.917277E-74   -2.771779E-72   -6.480647E-71    3.656930E-69   -2.436081E-69   -4.829783E-70   -3.039240E-71
        -8.366605E-73   -9.885227E-75   -2.252191E-77    4.226863E-79
  18     1.243139E-81   -7.422158E-80   -4.950265E-78    3.836582E-76    1.372238E-75   -4.935898E-73    7.624602E-72   -4.806734E-72   -1.383643E-72   -1.286932E-73
        -5.610343E-75   -1.230530E-76   -1.231609E-78   -2.325181E-81

 CONCENTRATION WILL BE SAVED ON UNIT 1027 AT END OF TIME STEP    1, STRESS PERIOD    2


  MASS BUDGET FOR ENTIRE MODEL AT END OF TIME STEP    1, STRESS PERIOD   2
  ---------------------------------------------------------------------------------------------------

     CUMULATIVE MASS      M       RATES FOR THIS TIME STEP      M/T          PACKAGE NAME    
     ------------------                 ------------------------                     ----------------

           IN:                                      IN:
           ---                                      ---
     STORAGE-AQUEOUS =       9.4650E-03       STORAGE-AQUEOUS =       9.4637E-05     MST                              
                 WEL =           5.7870                   WEL =           0.0000     SSM_WEL-1                        
                 CHD =           0.0000                   CHD =           0.0000     SSM_CHD-1                        

            TOTAL IN =           5.7965              TOTAL IN =       9.4637E-05

          OUT:                                     OUT:
          ----                                     ----
     STORAGE-AQUEOUS =           5.7965       STORAGE-AQUEOUS =       9.4637E-05     MST                              
                 WEL =       2.6676E-42                   WEL =       2.6666E-44     SSM_WEL-1                        
                 CHD =           0.0000                   CHD =           0.0000     SSM_CHD-1                        

           TOTAL OUT =           5.7965             TOTAL OUT =       9.4637E-05

            IN - OUT =       1.3149E-09              IN - OUT =      -5.2173E-12

 PERCENT DISCREPANCY =           0.00     PERCENT DISCREPANCY =          -0.00




         TIME SUMMARY AT END OF TIME STEP    1 IN STRESS PERIOD    2
                    SECONDS     MINUTES      HOURS       DAYS        YEARS
                    -----------------------------------------------------------
   TIME STEP LENGTH  100.00      1.6667     2.77778E-02 1.15741E-03 3.16881E-06
 STRESS PERIOD TIME  100.00      1.6667     2.77778E-02 1.15741E-03 3.16881E-06
         TOTAL TIME  200.00      3.3333     5.55556E-02 2.31481E-03 6.33762E-06


end timestep


start timestep kper="3" kstp="1" mode="normal"


 OUTPUT CONTROL FOR STRESS PERIOD 3 IS REPEATED USING SETTINGS FROM A PREVIOUS STRESS PERIOD.
 UBDSV1 SAVING     FLOW-JA-FACE ON UNIT   1026 AT TIME STEP      1, STRESS PERIOD      3
 UBDSV1 SAVING  STORAGE-AQUEOUS ON UNIT   1026 AT TIME STEP      1, STRESS PERIOD      3
 UBDSV06 SAVING  SOURCE-SINK MIX IN MODEL GWT-P09-MF6      PACKAGE GWT-P09-MF6     CONNECTED TO MODEL GWT-P09-MF6      PACKAGE SSM              ON UNIT   1026 AT TIME STEP      1, STRESS PERIOD      3

 SSM PACKAGE (SSM) FLOW RATES   PERIOD      3   STEP        1
 ------------------------------------------------------------------------------------------------
   NUMBER   CELLID                   BOUND Q        SSM CONC          RATE         PACKAGE NAME  
 ------------------------------------------------------------------------------------------------
     1      (1,4,7)               1.00000000E-03  0.0000000       0.0000000           WEL-1      
     2      (1,11,7)             -1.89000000E-02 -2.42448601E-40  0.0000000           WEL-1      
     1      (1,1,1)               0.26517405      0.0000000       0.0000000           CHD-1      
     2      (1,18,1)              1.73345688E-02  0.0000000       0.0000000           CHD-1      
     3      (1,1,2)               0.26517390      0.0000000       0.0000000           CHD-1      
     4      (1,18,2)              2.38373344E-02  0.0000000       0.0000000           CHD-1      
     5      (1,1,3)               0.26517382      0.0000000       0.0000000           CHD-1      
     6      (1,18,3)              2.65135050E-02  0.0000000       0.0000000           CHD-1      
     7      (1,1,4)               0.26517371      0.0000000       0.0000000           CHD-1      
     8      (1,18,4)              2.91686414E-02  0.0000000       0.0000000           CHD-1      
     9      (1,1,5)               0.26517328      0.0000000       0.0000000           CHD-1      
     10     (1,18,5)              3.18208430E-02  0.0000000       0.0000000           CHD-1      
     11     (1,1,6)               0.26517171      0.0000000       0.0000000           CHD-1      
     12     (1,18,6)              3.44726584E-02  0.0000000       0.0000000           CHD-1      
     13     (1,1,7)               0.26516838      0.0000000       0.0000000           CHD-1      
     14     (1,18,7)              3.71244218E-02  0.0000000       0.0000000           CHD-1      
     15     (1,1,8)               0.26517179      0.0000000       0.0000000           CHD-1      
     16     (1,18,8)              3.97761511E-02  0.0000000       0.0000000           CHD-1      
     17     (1,1,9)               0.26517353      0.0000000       0.0000000           CHD-1      
     18     (1,18,9)              4.24278852E-02  0.0000000       0.0000000           CHD-1      
     19     (1,1,10)              0.26517402      0.0000000       0.0000000           CHD-1      
     20     (1,18,10)             4.50796781E-02  0.0000000       0.0000000           CHD-1      
     21     (1,1,11)              0.26517413      0.0000000       0.0000000           CHD-1      
     22     (1,18,11)             4.77318697E-02  0.0000000       0.0000000           CHD-1      
     23     (1,1,12)              0.26517416      0.0000000       0.0000000           CHD-1      
     24     (1,18,12)             5.03870027E-02  0.0000000       0.0000000           CHD-1      
     25     (1,1,13)              0.26517416      0.0000000       0.0000000           CHD-1      
     26     (1,18,13)             5.30631724E-02  0.0000000       0.0000000           CHD-1      
     27     (1,1,14)              0.26517416      0.0000000       0.0000000           CHD-1      
     28     (1,18,14)             5.95659377E-02  0.0000000       0.0000000           CHD-1      
 ------------------------------------------------------------------------------------------------



1
  CONCENTRATION IN LAYER   1 AT END OF TIME STEP   1 IN STRESS PERIOD    3
  ---------------------------------------------------------------------------

                1               2               3               4               5               6               7               8               9              10
               11              12              13              14
 ................................................................................................................................................................
   1     1.256224E-22    3.009247E-20    6.996877E-18    1.538956E-15    3.064635E-13    4.968078E-11    4.601541E-09    5.005777E-11    2.559519E-13    9.530455E-16
         3.264461E-18    1.113521E-20    3.824199E-23    1.323240E-25
   2     3.754076E-22    1.382649E-19    5.056512E-17    1.811977E-14    6.183815E-12    1.813637E-09    2.728515E-07    1.838609E-09    5.385219E-12    1.238488E-14
         2.892335E-17    7.053427E-20    1.750760E-22    4.392596E-25
   3     5.202814E-23    6.541546E-20    8.760604E-17    1.152394E-13    1.413618E-10    1.435826E-07    4.007379E-05    1.476263E-07    1.402430E-10    1.056565E-13
         7.753310E-17    5.701331E-20    4.534241E-23    4.599139E-26
   4     9.754675E-25    5.639362E-21    3.687134E-17    2.398443E-13    1.459561E-09    7.307136E-06    1.903355E-02    7.330746E-06    1.495503E-09    2.478293E-13
         3.847979E-17    6.108476E-21    1.221351E-24    5.146506E-28
   5    -1.553817E-28    1.508058E-24    1.829633E-20    1.009438E-16   -8.219444E-13    1.910903E-09    4.313870E-05   -2.892630E-09   -7.619542E-12   -1.077413E-15
        -1.166086E-21    7.860088E-24    1.864584E-27    7.509922E-31
   6    -7.240742E-31   -8.489259E-30    2.483359E-27    9.193547E-23   -6.115484E-19   -1.234647E-14    3.365558E-11   -4.495604E-14   -1.018677E-15    1.846391E-20
         1.670214E-23    1.902426E-27    4.355201E-31    1.754541E-34
   7    -2.718439E-35    2.661014E-38    3.561048E-37    1.286661E-32   -8.479737E-29   -3.350619E-24    5.335072E-21    4.019253E-22   -3.581492E-20    3.880094E-24
         6.056714E-28    6.878644E-32    1.613147E-35    6.487101E-39
   8    -1.557529E-40    2.463636E-47    1.012269E-45   -3.889442E-42   -5.133005E-37   -1.187977E-34    2.539679E-31    2.172087E-30   -2.346411E-25   -1.883977E-28
         3.897449E-32    2.160023E-36    1.365392E-40    3.865348E-44
   9    -1.340895E-46    7.694403E-49   -4.658794E-50   -3.708973E-44   -4.522533E-41   -3.792163E-40    4.410656E-37    6.647326E-32   -1.212994E-30   -2.045086E-32
        -2.925431E-36    2.379693E-40    5.557909E-45    9.810199E-50
  10    -1.278828E-53    3.066279E-55   -1.150882E-51   -1.103464E-47   -1.219434E-45   -5.556495E-42   -2.278121E-37    6.044461E-36   -1.470752E-35   -3.557197E-37
        -7.106769E-40   -1.056981E-44    5.690636E-50    1.451522E-54
  11    -1.140123E-61   -3.178970E-60   -1.726622E-55   -3.414311E-52   -3.064743E-47   -7.978595E-43   -2.424486E-40    1.128422E-39   -3.540574E-40   -2.751679E-42
        -7.074668E-45   -3.880451E-48   -7.984551E-53    1.890469E-58
  12    -6.075984E-68   -6.284550E-63   -9.312628E-60   -2.430372E-54   -1.191685E-48   -2.265630E-47   -4.060879E-45    2.669875E-44    1.727718E-46   -8.659725E-47
        -2.289217E-49   -4.093637E-52   -5.295745E-56   -4.070273E-61
  13     3.096423E-71   -2.605340E-67   -2.436782E-61   -4.538343E-55   -2.791255E-53   -8.238679E-51   -1.904275E-49    3.325619E-49    3.201024E-50   -4.116538E-53
        -1.420559E-53   -1.101778E-56   -8.736565E-60   -8.884527E-64
  14     5.922304E-73    1.501819E-67    3.199264E-62   -3.366131E-60   -3.257644E-57   -2.330537E-55   -4.505472E-54    4.097791E-54    4.519817E-55    8.642561E-57
        -1.044969E-58   -1.833922E-60   -1.261052E-63   -9.008221E-67
  15    -4.392009E-73   -1.936015E-68    2.937442E-66    1.996139E-63    4.775304E-62   -4.801840E-60   -1.644078E-58    1.398011E-58    1.953787E-59    6.626296E-61
         2.026354E-63   -1.501183E-64   -1.249139E-66   -8.840813E-70
  16     6.815996E-74   -1.281126E-71   -6.878912E-69    8.364576E-68    2.435783E-65   -1.273104E-64   -2.749396E-62    2.378459E-62    4.196953E-63    2.082123E-64
         3.027388E-66   -2.511734E-68   -8.389558E-70   -5.021461E-72
  17     3.006477E-76    1.059432E-73   -5.122708E-72   -3.716269E-70    1.732246E-68    3.894113E-67   -2.003094E-65    1.758815E-65    3.865683E-66    2.595579E-67
         6.731930E-69    3.411304E-71   -1.280452E-72   -2.226484E-74
  18    -1.154818E-77    7.041192E-76    3.044751E-74   -2.439295E-72   -1.072113E-71    2.816843E-69   -4.017074E-68    3.332608E-68    1.046666E-68    1.051943E-69
         4.691329E-71    8.864471E-73    9.210266E-76   -2.253855E-76

 CONCENTRATION WILL BE SAVED ON UNIT 1027 AT END OF TIME STEP    1, STRESS PERIOD    3


  MASS BUDGET FOR ENTIRE MODEL AT END OF TIME STEP    1, STRESS PERIOD   3
  ---------------------------------------------------------------------------------------------------

     CUMULATIVE MASS      M       RATES FOR THIS TIME STEP      M/T          PACKAGE NAME    
     ------------------                 ------------------------                     ----------------

           IN:                                      IN:
           ---                                      ---
     STORAGE-AQUEOUS =       2.6009E-02       STORAGE-AQUEOUS =       1.6544E-04     MST                              
                 WEL =           5.7870                   WEL =           0.0000     SSM_WEL-1                        
                 CHD =           0.0000                   CHD =           0.0000     SSM_CHD-1                        

            TOTAL IN =           5.8130              TOTAL IN =       1.6544E-04

          OUT:                                     OUT:
          ----                                     ----
     STORAGE-AQUEOUS =           5.8130       STORAGE-AQUEOUS =       1.6544E-04     MST                              
                 WEL =       2.6676E-42                   WEL =           0.0000     SSM_WEL-1                        
                 CHD =           0.0000                   CHD =           0.0000     SSM_CHD-1                        

           TOTAL OUT =           5.8130             TOTAL OUT =       1.6544E-04

            IN - OUT =       3.3540E-10              IN - OUT =      -9.7953E-12

 PERCENT DISCREPANCY =           0.00     PERCENT DISCREPANCY =          -0.00




         TIME SUMMARY AT END OF TIME STEP    1 IN STRESS PERIOD    3
                    SECONDS     MINUTES      HOURS       DAYS        YEARS
                    -----------------------------------------------------------
   TIME STEP LENGTH  100.00      1.6667     2.77778E-02 1.15741E-03 3.16881E-06
 STRESS PERIOD TIME  100.00      1.6667     2.77778E-02 1.15741E-03 3.16881E-06
         TOTAL TIME  300.00      5.0000     8.33333E-02 3.47222E-03 9.50643E-06


end timestep


start timestep kper="4" kstp="1" mode="normal"


 OUTPUT CONTROL FOR STRESS PERIOD 4 IS REPEATED USING SETTINGS FROM A PREVIOUS STRESS PERIOD.
 UBDSV1 SAVING     FLOW-JA-FACE ON UNIT   1026 AT TIME STEP      1, STRESS PERIOD      4
 UBDSV1 SAVING  STORAGE-AQUEOUS ON UNIT   1026 AT TIME STEP      1, STRESS PERIOD      4
 UBDSV06 SAVING  SOURCE-SINK MIX IN MODEL GWT-P09-MF6      PACKAGE GWT-P09-MF6     CONNECTED TO MODEL GWT-P09-MF6      PACKAGE SSM              ON UNIT   1026 AT TIME STEP      1, STRESS PERIOD      4

 SSM PACKAGE (SSM) FLOW RATES   PERIOD      4   STEP        1
 ------------------------------------------------------------------------------------------------
   NUMBER   CELLID                   BOUND Q        SSM CONC          RATE         PACKAGE NAME  
 ------------------------------------------------------------------------------------------------
     1      (1,4,7)               1.00000000E-03  0.0000000       0.0000000           WEL-1      
     2      (1,11,7)             -1.89000000E-02 -6.40205726E-38  0.0000000           WEL-1      
     1      (1,1,1)               0.24309792      0.0000000       0.0000000           CHD-1      
     2      (1,18,1)              1.54834845E-02  0.0000000       0.0000000           CHD-1      
     3      (1,1,2)               0.24309752      0.0000000       0.0000000           CHD-1      
     4      (1,18,2)              2.18321940E-02  0.0000000       0.0000000           CHD-1      
     5      (1,1,3)               0.24309729      0.0000000       0.0000000           CHD-1      
     6      (1,18,3)              2.43025262E-02  0.0000000       0.0000000           CHD-1      
     7      (1,1,4)               0.24309703      0.0000000       0.0000000           CHD-1      
     8      (1,18,4)              2.67397318E-02  0.0000000       0.0000000           CHD-1      
     9      (1,1,5)               0.24309619      0.0000000       0.0000000           CHD-1      
     10     (1,18,5)              2.91716688E-02  0.0000000       0.0000000           CHD-1      
     11     (1,1,6)               0.24309353      0.0000000       0.0000000           CHD-1      
     12     (1,18,6)              3.16028256E-02  0.0000000       0.0000000           CHD-1      
     13     (1,1,7)               0.24308868      0.0000000       0.0000000           CHD-1      
     14     (1,18,7)              3.40338610E-02  0.0000000       0.0000000           CHD-1      
     15     (1,1,8)               0.24309380      0.0000000       0.0000000           CHD-1      
     16     (1,18,8)              3.64648157E-02  0.0000000       0.0000000           CHD-1      
     17     (1,1,9)               0.24309693      0.0000000       0.0000000           CHD-1      
     18     (1,18,9)              3.88957788E-02  0.0000000       0.0000000           CHD-1      
     19     (1,1,10)              0.24309796      0.0000000       0.0000000           CHD-1      
     20     (1,18,10)             4.13268757E-02  0.0000000       0.0000000           CHD-1      
     21     (1,1,11)              0.24309821      0.0000000       0.0000000           CHD-1      
     22     (1,18,11)             4.37587839E-02  0.0000000       0.0000000           CHD-1      
     23     (1,1,12)              0.24309827      0.0000000       0.0000000           CHD-1      
     24     (1,18,12)             4.61959791E-02  0.0000000       0.0000000           CHD-1      
     25     (1,1,13)              0.24309828      0.0000000       0.0000000           CHD-1      
     26     (1,18,13)             4.86663083E-02  0.0000000       0.0000000           CHD-1      
     27     (1,1,14)              0.24309828      0.0000000       0.0000000           CHD-1      
     28     (1,18,14)             5.50150170E-02  0.0000000       0.0000000           CHD-1      
 ------------------------------------------------------------------------------------------------



1
  CONCENTRATION IN LAYER   1 AT END OF TIME STEP   1 IN STRESS PERIOD    4
  ---------------------------------------------------------------------------

                1               2               3               4               5               6               7               8               9              10
               11              12              13              14
 ................................................................................................................................................................
   1     4.210066E-22    9.805141E-20    2.202247E-17    4.639382E-15    8.752918E-13    1.329153E-10    1.170775E-08    1.343054E-10    7.823580E-13    3.423544E-15
         1.337011E-17    4.993083E-20    1.825497E-22    6.611838E-25
   2     1.404997E-21    4.870365E-19    1.664687E-16    5.511927E-14    1.705540E-11    4.423967E-09    6.250797E-07    4.510725E-09    1.586561E-11    4.426704E-14
         1.177460E-16    3.134110E-19    8.350335E-22    2.229992E-24
   3     3.758407E-22    3.779158E-19    3.906770E-16    3.886984E-13    3.524925E-10    2.565320E-07    6.841507E-05    2.674736E-07    3.656650E-10    3.813044E-13
         3.720537E-16    3.541704E-19    3.485952E-22    3.960131E-25
   4     1.554858E-23    6.038023E-20    2.576621E-16    1.075480E-12    4.075266E-09    1.220543E-05    1.882632E-02    1.227618E-05    4.234941E-09    1.130952E-12
         2.733011E-16    6.534336E-20    1.800856E-23    8.128463E-27
   5    -8.847178E-27    4.634872E-23    3.472831E-19    1.602968E-15    3.796079E-12    2.679335E-08    8.398029E-05    1.382310E-08   -2.256837E-11   -6.238957E-15
         7.386775E-20    1.482727E-22    4.833665E-26    2.101580E-29
   6    -5.583506E-29   -4.063859E-28    7.587906E-26    1.874877E-21    3.877775E-19   -9.694448E-15    1.437063E-10   -1.952199E-13   -1.799880E-14   -9.001159E-19
         2.880224E-22    6.916891E-26    2.211799E-29    9.620426E-33
   7    -4.606614E-33    2.129876E-36    2.570802E-35    6.232428E-31    4.164843E-29   -2.360673E-23    5.531559E-20    5.039854E-21   -1.514383E-18    9.676987E-23
         2.672017E-26    5.512084E-30    1.797594E-33    7.810144E-37
   8    -6.477555E-38    1.060424E-44    1.397155E-43    3.348888E-41   -7.953359E-36   -2.208382E-33    5.665369E-30    1.612005E-28   -2.449142E-23   -1.911672E-26
         2.392790E-30    2.669065E-34    3.449719E-38    1.144614E-41
   9    -1.516400E-43    8.995478E-46    3.531023E-49   -1.100496E-42   -1.446833E-39   -2.176865E-38    3.561185E-34    1.229818E-29   -2.663548E-28   -4.245674E-30
        -6.994905E-34    3.933463E-38    1.758605E-42    7.075754E-47
  10    -4.247152E-50    9.410123E-52   -6.711893E-50   -6.207642E-46   -1.066656E-43   -1.466857E-39   -5.301127E-35    1.783243E-33   -5.528100E-33   -1.394418E-34
        -2.899105E-37   -5.591876E-42    2.566640E-47    9.309757E-52
  11    -9.609535E-58    8.630866E-59   -1.995369E-53   -1.286511E-49   -1.189266E-44   -2.357499E-40   -6.402057E-38    4.328498E-37   -1.961586E-37   -1.803526E-39
        -6.075310E-42   -4.238559E-45   -1.022288E-49    2.063484E-55
  12    -1.544252E-64   -1.607918E-60   -3.392374E-57   -1.831113E-51   -5.327140E-46   -9.729332E-45   -1.992028E-42    1.300998E-41   -2.936162E-43   -9.045645E-44
        -3.488436E-46   -7.509028E-49   -1.327836E-52   -1.311665E-57
  13     1.390668E-68   -5.789121E-64   -4.026010E-58   -3.812028E-52   -2.060219E-50   -6.226263E-48   -1.300986E-46    2.545705E-46    2.437855E-47   -5.271201E-49
        -3.017026E-50   -3.755970E-53   -3.650306E-56   -5.032566E-60
  14     2.987468E-69    4.334993E-64    5.123213E-59   -5.057069E-57   -4.113028E-54   -2.640292E-52   -4.809145E-51    5.364641E-51    6.324832E-52    6.583962E-54
        -5.675187E-55   -8.056500E-57   -8.600596E-60   -7.433324E-63
  15    -1.848008E-69   -5.327792E-65    7.724676E-63    4.346566E-60    8.183817E-59   -8.963417E-57   -2.877646E-55    3.033089E-55    4.522675E-56    1.243530E-57
        -2.907028E-59   -1.251254E-60   -9.668275E-63   -1.038077E-65
  16     2.753801E-70   -4.978162E-68   -2.222009E-65    3.341777E-64    6.536942E-62   -3.146417E-61   -6.734698E-59    7.193938E-59    1.352201E-59    6.096346E-61
        -1.136748E-63   -5.515081E-64   -9.902385E-66   -5.844721E-68
  17     1.408977E-72    4.208790E-70   -2.066460E-68   -1.198775E-66    5.293104E-65    1.222580E-63   -5.611729E-62    6.052321E-62    1.419397E-62    9.190351E-64
         1.333680E-65   -6.252642E-67   -2.371300E-68   -3.199054E-70
  18    -4.768664E-74    2.823714E-72    9.850692E-71   -7.630644E-69   -4.570562E-68    8.207796E-66   -1.085422E-64    1.096510E-64    3.659298E-65    3.720409E-66
         1.414906E-67    1.074391E-70   -1.335460E-70   -4.058705E-72

 CONCENTRATION WILL BE SAVED ON UNIT 1027 AT END OF TIME STEP    1, STRESS PERIOD    4


  MASS BUDGET FOR ENTIRE MODEL AT END OF TIME STEP    1, STRESS PERIOD   4
  ---------------------------------------------------------------------------------------------------

     CUMULATIVE MASS      M       RATES FOR THIS TIME STEP      M/T          PACKAGE NAME    
     ------------------                 ------------------------                     ----------------

           IN:                                      IN:
           ---                                      ---
     STORAGE-AQUEOUS =       5.0243E-02       STORAGE-AQUEOUS =       2.4234E-04     MST                              
                 WEL =           5.7870                   WEL =           0.0000     SSM_WEL-1                        
                 CHD =           0.0000                   CHD =           0.0000     SSM_CHD-1                        

            TOTAL IN =           5.8372              TOTAL IN =       2.4234E-04

          OUT:                                     OUT:
          ----                                     ----
     STORAGE-AQUEOUS =           5.8372       STORAGE-AQUEOUS =       2.4234E-04     MST                              
                 WEL =       2.6676E-42                   WEL =           0.0000     SSM_WEL-1                        
                 CHD =           0.0000                   CHD =           0.0000     SSM_CHD-1                        

           TOTAL OUT =           5.8372             TOTAL OUT =       2.4234E-04

            IN - OUT =      -1.0185E-09              IN - OUT =      -1.3539E-11

 PERCENT DISCREPANCY =          -0.00     PERCENT DISCREPANCY =          -0.00




         TIME SUMMARY AT END OF TIME STEP    1 IN STRESS PERIOD    4
                    SECONDS     MINUTES      HOURS       DAYS        YEARS
                    -----------------------------------------------------------
   TIME STEP LENGTH  100.00      1.6667     2.77778E-02 1.15741E-03 3.16881E-06
 STRESS PERIOD TIME  100.00      1.6667     2.77778E-02 1.15741E-03 3.16881E-06
         TOTAL TIME  400.00      6.6667     0.11111     4.62963E-03 1.26752E-05


end timestep


start timestep kper="5" kstp="1" mode="normal"


 OUTPUT CONTROL FOR STRESS PERIOD 5 IS REPEATED USING SETTINGS FROM A PREVIOUS STRESS PERIOD.
 UBDSV1 SAVING     FLOW-JA-FACE ON UNIT   1026 AT TIME STEP      1, STRESS PERIOD      5
 UBDSV1 SAVING  STORAGE-AQUEOUS ON UNIT   1026 AT TIME STEP      1, STRESS PERIOD      5
 UBDSV06 SAVING  SOURCE-SINK MIX IN MODEL GWT-P09-MF6      PACKAGE GWT-P09-MF6     CONNECTED TO MODEL GWT-P09-MF6      PACKAGE SSM              ON UNIT   1026 AT TIME STEP      1, STRESS PERIOD      5

 SSM PACKAGE (SSM) FLOW RATES   PERIOD      5   STEP        1
 ------------------------------------------------------------------------------------------------
   NUMBER   CELLID                   BOUND Q        SSM CONC          RATE         PACKAGE NAME  
 ------------------------------------------------------------------------------------------------
     1      (1,4,7)               1.00000000E-03  0.0000000       0.0000000           WEL-1      
     2      (1,11,7)             -1.89000000E-02 -3.26191995E-36  0.0000000           WEL-1      
     1      (1,1,1)               0.22488254      0.0000000       0.0000000           CHD-1      
     2      (1,18,1)              1.39409523E-02  0.0000000       0.0000000           CHD-1      
     3      (1,1,2)               0.22488162      0.0000000       0.0000000           CHD-1      
     4      (1,18,2)              2.01716118E-02  0.0000000       0.0000000           CHD-1      
     5      (1,1,3)               0.22488106      0.0000000       0.0000000           CHD-1      
     6      (1,18,3)              2.24765397E-02  0.0000000       0.0000000           CHD-1      
     7      (1,1,4)               0.22488054      0.0000000       0.0000000           CHD-1      
     8      (1,18,4)              2.47352602E-02  0.0000000       0.0000000           CHD-1      
     9      (1,1,5)               0.22487915      0.0000000       0.0000000           CHD-1      
     10     (1,18,5)              2.69857833E-02  0.0000000       0.0000000           CHD-1      
     11     (1,1,6)               0.22487523      0.0000000       0.0000000           CHD-1      
     12     (1,18,6)              2.92349621E-02  0.0000000       0.0000000           CHD-1      
     13     (1,1,7)               0.22486899      0.0000000       0.0000000           CHD-1      
     14     (1,18,7)              3.14839029E-02  0.0000000       0.0000000           CHD-1      
     15     (1,1,8)               0.22487591      0.0000000       0.0000000           CHD-1      
     16     (1,18,8)              3.37326841E-02  0.0000000       0.0000000           CHD-1      
     17     (1,1,9)               0.22488093      0.0000000       0.0000000           CHD-1      
     18     (1,18,9)              3.59814763E-02  0.0000000       0.0000000           CHD-1      
     19     (1,1,10)              0.22488279      0.0000000       0.0000000           CHD-1      
     20     (1,18,10)             3.82305238E-02  0.0000000       0.0000000           CHD-1      
     21     (1,1,11)              0.22488331      0.0000000       0.0000000           CHD-1      
     22     (1,18,11)             4.04809794E-02  0.0000000       0.0000000           CHD-1      
     23     (1,1,12)              0.22488343      0.0000000       0.0000000           CHD-1      
     24     (1,18,12)             4.27396739E-02  0.0000000       0.0000000           CHD-1      
     25     (1,1,13)              0.22488345      0.0000000       0.0000000           CHD-1      
     26     (1,18,13)             4.50445936E-02  0.0000000       0.0000000           CHD-1      
     27     (1,1,14)              0.22488346      0.0000000       0.0000000           CHD-1      
     28     (1,18,14)             5.12752509E-02  0.0000000       0.0000000           CHD-1      
 ------------------------------------------------------------------------------------------------



1
  CONCENTRATION IN LAYER   1 AT END OF TIME STEP   1 IN STRESS PERIOD    5
  ---------------------------------------------------------------------------

                1               2               3               4               5               6               7               8               9              10
               11              12              13              14
 ................................................................................................................................................................
   1     1.151814E-21    2.608041E-19    5.660634E-17    1.143357E-14    2.047817E-12    2.921219E-10    2.429922E-08    2.961439E-10    1.912692E-12    9.347902E-15
         4.005519E-17    1.606491E-19    6.202653E-22    2.344833E-24
   2     4.211072E-21    1.381743E-18    4.439432E-16    1.367012E-13    3.870395E-11    9.011859E-09    1.179357E-06    9.249234E-09    3.756394E-11    1.200182E-13
         3.538202E-16    1.017312E-18    2.889111E-21    8.162014E-24
   3     1.809929E-21    1.524628E-18    1.287837E-15    1.031094E-12    7.404811E-10    4.190158E-07    1.025106E-04    4.436148E-07    7.912855E-10    1.054025E-12
         1.279849E-15    1.488883E-18    1.740857E-21    2.215176E-24
   4     1.374380E-22    3.892817E-19    1.186644E-15    3.484771E-12    9.071749E-09    1.813750E-05    1.856807E-02    1.831078E-05    9.600917E-09    3.747449E-12
         1.285394E-15    4.245361E-19    1.523395E-22    7.636749E-26
   5    -1.639493E-25    6.079738E-22    3.121870E-18    1.072581E-14    2.743746E-11    8.847788E-08    1.413600E-04    6.020229E-08   -4.852465E-11   -2.478407E-14
         9.240626E-19    1.503001E-21    6.384529E-25    3.110787E-28
   6    -1.547953E-27   -8.122175E-27    1.029822E-24    2.099565E-20    3.877757E-17    1.120614E-13    4.595358E-10   -6.450597E-13   -1.137814E-13   -1.162502E-17
         2.907353E-21    1.187187E-24    4.982282E-28    2.427250E-31
   7    -2.397963E-31    6.195258E-35    7.102622E-34    1.422277E-29    2.528494E-26   -7.872285E-23    3.688553E-19    3.921297E-20   -1.881574E-17    8.383472E-22
         5.575381E-25    1.781172E-28    7.587161E-32    3.690720E-35
   8    -6.955017E-36    1.184442E-42    7.543469E-42    7.264414E-39   -4.965744E-35   -2.059522E-32    7.011173E-29    3.189376E-27   -6.302420E-22   -4.602278E-25
         5.012461E-29    1.318331E-32    2.841433E-36    1.113615E-39
   9    -3.673817E-41    2.245833E-43    2.722750E-46   -1.168647E-41   -2.055290E-38   -5.592458E-37    2.356893E-32    4.940184E-28   -1.247302E-26   -1.873541E-28
        -3.380863E-32    1.848415E-36    1.870341E-40    1.390447E-44
  10    -2.489396E-47    5.159794E-49   -1.224864E-48   -1.360167E-44   -4.233413E-42   -7.571809E-38   -2.492835E-33    1.024160E-31   -3.888816E-31   -1.012757E-32
        -2.150570E-35   -5.118549E-40    2.994844E-45    1.432691E-49
  11    -1.245698E-54    6.257883E-55   -7.961770E-52   -1.121550E-47   -8.078015E-43   -1.313114E-38   -3.261920E-36    2.988167E-35   -1.817053E-35   -1.940942E-37
        -8.448097E-40   -7.144170E-43   -1.830513E-47    4.806866E-53
  12    -3.763380E-61   -1.174942E-58   -4.650512E-55   -2.143152E-49   -4.044734E-44   -7.638448E-43   -1.645631E-40    1.071484E-39   -6.888114E-41   -1.396217E-41
        -7.328708E-44   -1.888637E-46   -4.334347E-50   -4.972870E-55
  13     4.849086E-67   -2.071562E-61   -8.856783E-56   -4.691093E-50   -2.412471E-48   -7.080109E-46   -1.381124E-44    2.956325E-44    2.586127E-45   -1.722126E-46
        -8.120359E-48   -1.493226E-50   -1.767459E-53   -3.145513E-57
  14     1.500878E-66    1.406870E-61    1.043205E-56   -9.820680E-55   -6.795094E-52   -4.086108E-50   -7.174554E-49    9.433438E-49    1.115192E-49   -1.261512E-51
        -2.738654E-52   -3.869874E-54   -5.895700E-57   -6.121024E-60
  15    -7.844593E-67   -1.638557E-62    2.297591E-60    1.088991E-57    1.830305E-56   -1.995393E-54   -6.235798E-53    7.792168E-53    1.176635E-53    1.146852E-55
        -2.867606E-56   -9.025463E-58   -7.201774E-60   -1.076948E-62
  16     1.123727E-67   -1.969263E-65   -7.461034E-63    1.124909E-61    1.942043E-59   -7.014959E-59   -1.860018E-56    2.342336E-56    4.485278E-57    1.345871E-58
        -9.609288E-60   -5.728462E-61   -9.461223E-63   -5.898953E-65
  17     6.335248E-70    1.636201E-67   -7.736704E-66   -4.180189E-64    1.662355E-62    4.193232E-61   -1.690286E-59    2.134261E-59    5.134885E-60    2.684230E-61
        -6.975155E-63   -9.392379E-64   -2.669182E-65   -3.535625E-67
  18    -1.909017E-71    1.067531E-69    3.553247E-68   -2.477448E-66   -2.080676E-65    2.575726E-63   -3.168148E-62    3.702122E-62    1.274281E-62    1.192306E-63
         1.761164E-65   -3.023682E-66   -1.778303E-67   -4.602815E-69

 CONCENTRATION WILL BE SAVED ON UNIT 1027 AT END OF TIME STEP    1, STRESS PERIOD    5


  MASS BUDGET FOR ENTIRE MODEL AT END OF TIME STEP    1, STRESS PERIOD   5
  ---------------------------------------------------------------------------------------------------

     CUMULATIVE MASS      M       RATES FOR THIS TIME STEP      M/T          PACKAGE NAME    
     ------------------                 ------------------------                     ----------------

           IN:                                      IN:
           ---                                      ---
     STORAGE-AQUEOUS =       8.2198E-02       STORAGE-AQUEOUS =       3.1955E-04     MST                              
                 WEL =           5.7870                   WEL =           0.0000     SSM_WEL-1                        
                 CHD =           0.0000                   CHD =           0.0000     SSM_CHD-1                        

            TOTAL IN =           5.8692              TOTAL IN =       3.1955E-04

          OUT:                                     OUT:
          ----                                     ----
     STORAGE-AQUEOUS =           5.8692       STORAGE-AQUEOUS =       3.1955E-04     MST                              
                 WEL =       2.6676E-42                   WEL =           0.0000     SSM_WEL-1                        
                 CHD =           0.0000                   CHD =           0.0000     SSM_CHD-1                        

           TOTAL OUT =           5.8692             TOTAL OUT =       3.1955E-04

            IN - OUT =      -2.5925E-09              IN - OUT =      -1.5740E-11

 PERCENT DISCREPANCY =          -0.00     PERCENT DISCREPANCY =          -0.00




         TIME SUMMARY AT END OF TIME STEP    1 IN STRESS PERIOD    5
                    SECONDS     MINUTES      HOURS       DAYS        YEARS
                    -----------------------------------------------------------
   TIME STEP LENGTH  100.00      1.6667     2.77778E-02 1.15741E-03 3.16881E-06
 STRESS PERIOD TIME  100.00      1.6667     2.77778E-02 1.15741E-03 3.16881E-06
         TOTAL TIME  500.00      8.3333     0.13889     5.78704E-03 1.58440E-05


end timestep


start timestep kper="6" kstp="1" mode="normal"


 OUTPUT CONTROL FOR STRESS PERIOD 6 IS REPEATED USING SETTINGS FROM A PREVIOUS STRESS PERIOD.
 UBDSV1 SAVING     FLOW-JA-FACE ON UNIT   1026 AT TIME STEP      1, STRESS PERIOD      6
 UBDSV1 SAVING  STORAGE-AQUEOUS ON UNIT   1026 AT TIME STEP      1, STRESS PERIOD      6
 UBDSV06 SAVING  SOURCE-SINK MIX IN MODEL GWT-P09-MF6      PACKAGE GWT-P09-MF6     CONNECTED TO MODEL GWT-P09-MF6      PACKAGE SSM              ON UNIT   1026 AT TIME STEP      1, STRESS PERIOD      6

 SSM PACKAGE (SSM) FLOW RATES   PERIOD      6   STEP        1
 ------------------------------------------------------------------------------------------------
   NUMBER   CELLID                   BOUND Q        SSM CONC          RATE         PACKAGE NAME  
 ------------------------------------------------------------------------------------------------
     1      (1,4,7)               1.00000000E-03  0.0000000       0.0000000           WEL-1      
     2      (1,11,7)             -1.89000000E-02 -7.65180256E-35  0.0000000           WEL-1      
     1      (1,1,1)               0.20966500      0.0000000       0.0000000           CHD-1      
     2      (1,18,1)              1.26402346E-02  0.0000000       0.0000000           CHD-1      
     3      (1,1,2)               0.20966314      0.0000000       0.0000000           CHD-1      
     4      (1,18,2)              1.87787960E-02  0.0000000       0.0000000           CHD-1      
     5      (1,1,3)               0.20966198      0.0000000       0.0000000           CHD-1      
     6      (1,18,3)              2.09493567E-02  0.0000000       0.0000000           CHD-1      
     7      (1,1,4)               0.20966105      0.0000000       0.0000000           CHD-1      
     8      (1,18,4)              2.30603112E-02  0.0000000       0.0000000           CHD-1      
     9      (1,1,5)               0.20965897      0.0000000       0.0000000           CHD-1      
     10     (1,18,5)              2.51596654E-02  0.0000000       0.0000000           CHD-1      
     11     (1,1,6)               0.20965372      0.0000000       0.0000000           CHD-1      
     12     (1,18,6)              2.72569396E-02  0.0000000       0.0000000           CHD-1      
     13     (1,1,7)               0.20964632      0.0000000       0.0000000           CHD-1      
     14     (1,18,7)              2.93537994E-02  0.0000000       0.0000000           CHD-1      
     15     (1,1,8)               0.20965522      0.0000000       0.0000000           CHD-1      
     16     (1,18,8)              3.14503806E-02  0.0000000       0.0000000           CHD-1      
     17     (1,1,9)               0.20966273      0.0000000       0.0000000           CHD-1      
     18     (1,18,9)              3.35469716E-02  0.0000000       0.0000000           CHD-1      
     19     (1,1,10)              0.20966581      0.0000000       0.0000000           CHD-1      
     20     (1,18,10)             3.56439944E-02  0.0000000       0.0000000           CHD-1      
     21     (1,1,11)              0.20966674      0.0000000       0.0000000           CHD-1      
     22     (1,18,11)             3.77432113E-02  0.0000000       0.0000000           CHD-1      
     23     (1,1,12)              0.20966697      0.0000000       0.0000000           CHD-1      
     24     (1,18,12)             3.98541098E-02  0.0000000       0.0000000           CHD-1      
     25     (1,1,13)              0.20966702      0.0000000       0.0000000           CHD-1      
     26     (1,18,13)             4.20246518E-02  0.0000000       0.0000000           CHD-1      
     27     (1,1,14)              0.20966703      0.0000000       0.0000000           CHD-1      
     28     (1,18,14)             4.81632081E-02  0.0000000       0.0000000           CHD-1      
 ------------------------------------------------------------------------------------------------



1
  CONCENTRATION IN LAYER   1 AT END OF TIME STEP   1 IN STRESS PERIOD    6
  ---------------------------------------------------------------------------

                1               2               3               4               5               6               7               8               9              10
               11              12              13              14
 ................................................................................................................................................................
   1     2.732338E-21    6.017358E-19    1.263148E-16    2.449743E-14    4.174950E-12    5.611602E-10    4.397110E-08    5.710077E-10    4.020108E-12    2.140382E-14
         9.870089E-17    4.201483E-19    1.702024E-21    6.692686E-24
   2     1.078585E-20    3.365372E-18    1.021355E-15    2.941479E-13    7.680221E-11    1.623253E-08    1.957497E-06    1.678428E-08    7.686290E-11    2.736006E-13
         8.793409E-16    2.707109E-18    8.142558E-21    2.420065E-23
   3     6.659410E-21    4.840959E-18    3.466662E-15    2.326055E-12    1.383003E-09    6.398921E-07    1.408964E-04    6.884966E-07    1.518602E-09    2.459464E-12
         3.560372E-15    4.872478E-18    6.574526E-21    9.299808E-24
   4     8.231012E-22    1.789196E-18    4.127880E-15    9.068208E-12    1.733470E-08    2.491533E-05    1.826605E-02    2.528296E-05    1.876705E-08    1.002430E-11
         4.588225E-15    1.977748E-18    8.885687E-22    5.021952E-25
   5    -1.631419E-24    4.729740E-21    1.786286E-17    4.690997E-14    9.924123E-11    2.080634E-07    2.154089E-04    1.555639E-07   -7.592840E-11   -7.536524E-14
         6.111164E-18    1.008643E-20    5.375986E-24    2.978281E-27
   6    -2.262936E-26   -9.301108E-26    7.523516E-24    1.486645E-19    2.985362E-16    6.888662E-13    1.203130E-09   -1.760058E-12   -4.725642E-13   -7.895370E-17
         2.003346E-20    1.233967E-23    6.525149E-27    3.610354E-30
   7    -5.925477E-30    7.909988E-34    9.621683E-33    1.850055E-28    3.698609E-25    2.641605E-23    1.810027E-18    2.187185E-19   -1.375110E-16    2.490326E-21
         6.956631E-24    3.135432E-27    1.674368E-30    9.238093E-34
   8    -3.150067E-34    5.461616E-41    2.041792E-40    1.881889E-37    5.146110E-35   -1.025661E-31    5.761633E-28    3.442919E-26   -8.515485E-21   -5.834737E-24
         5.571591E-28    3.458113E-31    1.101591E-34    5.083409E-38
   9    -3.300183E-39    2.074133E-41    1.144196E-44    3.531586E-42   -1.473163E-37   -7.954303E-36    6.278205E-31    9.659163E-27   -2.798880E-25   -3.958158E-27
        -7.768046E-31    4.136834E-35    9.405549E-39    1.134926E-42
  10    -4.721726E-45    9.229692E-47   -1.703915E-48   -1.399278E-43   -9.392213E-41   -1.756635E-36   -5.493373E-32    2.679796E-30   -1.209535E-29   -3.220524E-31
        -6.917265E-34   -2.022682E-38    1.578120E-43    5.145095E-48
  11    -4.759285E-52    2.207660E-52   -1.435030E-50   -4.150872E-46   -2.372204E-41   -3.303224E-37   -7.651803E-35    9.004441E-34   -6.949995E-34   -8.522288E-36
        -4.703648E-38   -4.654713E-41   -1.209594E-45    4.181999E-51
  12    -2.651493E-58   -3.150690E-57   -3.246193E-53   -1.012803E-47   -1.306287E-42   -2.684241E-41   -5.738375E-39    3.738362E-38   -4.333190E-39   -8.231161E-40
        -5.560840E-42   -1.702833E-44   -4.875148E-48   -6.199282E-53
  13    -9.280398E-64   -2.514741E-59   -6.994067E-54   -2.227182E-48   -1.155470E-46   -3.170237E-44   -5.910958E-43    1.363664E-42    9.775495E-44   -1.608695E-44
        -7.546321E-46   -1.915853E-48   -2.735834E-51   -6.054315E-55
  14     2.254394E-64    1.485991E-59    7.478563E-55   -6.758444E-53   -4.040427E-50   -2.345857E-48   -4.049482E-47    6.099155E-47    6.767977E-48   -3.729529E-49
        -3.893432E-50   -5.812629E-52   -1.181839E-54   -1.458474E-57
  15    -1.015372E-64   -1.632682E-60    2.224597E-58    9.045320E-56    1.502228E-54   -1.507294E-52   -4.734947E-51    6.793956E-51    9.861138E-52   -2.538619E-53
        -6.029267E-54   -1.811690E-55   -1.542681E-57   -3.006640E-60
  16     1.395656E-65   -2.379069E-63   -7.801507E-61    1.051268E-59    1.876221E-57   -3.441549E-57   -1.701370E-54    2.443802E-54    4.564432E-55   -2.932410E-58
        -2.888785E-57   -1.428135E-58   -2.385758E-60   -1.602900E-62
  17     8.428283E-68    1.913805E-65   -8.416923E-64   -4.692980E-62    1.612705E-60    4.673127E-59   -1.644639E-57    2.349876E-57    5.587657E-58    1.435909E-59
        -3.400217E-60   -2.667167E-61   -7.285896E-63   -9.984648E-65
  18    -2.289394E-69    1.185943E-67    4.213823E-66   -2.514296E-64   -2.928316E-63    2.618548E-61   -3.006072E-60    3.921806E-60    1.353442E-60    9.928261E-62
        -5.356642E-63   -1.014109E-63   -4.953022E-65   -1.273063E-66

 CONCENTRATION WILL BE SAVED ON UNIT 1027 AT END OF TIME STEP    1, STRESS PERIOD    6


  MASS BUDGET FOR ENTIRE MODEL AT END OF TIME STEP    1, STRESS PERIOD   6
  ---------------------------------------------------------------------------------------------------

     CUMULATIVE MASS      M       RATES FOR THIS TIME STEP      M/T          PACKAGE NAME    
     ------------------                 ------------------------                     ----------------

           IN:                                      IN:
           ---                                      ---
     STORAGE-AQUEOUS =           0.1215       STORAGE-AQUEOUS =       3.9278E-04     MST                              
                 WEL =           5.7870                   WEL =           0.0000     SSM_WEL-1                        
                 CHD =           0.0000                   CHD =           0.0000     SSM_CHD-1                        

            TOTAL IN =           5.9085              TOTAL IN =       3.9278E-04

          OUT:                                     OUT:
          ----                                     ----
     STORAGE-AQUEOUS =           5.9085       STORAGE-AQUEOUS =       3.9278E-04     MST                              
                 WEL =       2.6676E-42                   WEL =           0.0000     SSM_WEL-1                        
                 CHD =           0.0000                   CHD =           0.0000     SSM_CHD-1                        

           TOTAL OUT =           5.9085             TOTAL OUT =       3.9278E-04

            IN - OUT =      -4.2307E-09              IN - OUT =      -1.6382E-11

 PERCENT DISCREPANCY =          -0.00     PERCENT DISCREPANCY =          -0.00




         TIME SUMMARY AT END OF TIME STEP    1 IN STRESS PERIOD    6
                    SECONDS     MINUTES      HOURS       DAYS        YEARS
                    -----------------------------------------------------------
   TIME STEP LENGTH  100.00      1.6667     2.77778E-02 1.15741E-03 3.16881E-06
 STRESS PERIOD TIME  100.00      1.6667     2.77778E-02 1.15741E-03 3.16881E-06
         TOTAL TIME  600.00      10.000     0.16667     6.94444E-03 1.90129E-05


end timestep


start timestep kper="7" kstp="1" mode="normal"


 OUTPUT CONTROL FOR STRESS PERIOD 7 IS REPEATED USING SETTINGS FROM A PREVIOUS STRESS PERIOD.
 UBDSV1 SAVING     FLOW-JA-FACE ON UNIT   1026 AT TIME STEP      1, STRESS PERIOD      7
 UBDSV1 SAVING  STORAGE-AQUEOUS ON UNIT   1026 AT TIME STEP      1, STRESS PERIOD      7
 UBDSV06 SAVING  SOURCE-SINK MIX IN MODEL GWT-P09-MF6      PACKAGE GWT-P09-MF6     CONNECTED TO MODEL GWT-P09-MF6      PACKAGE SSM              ON UNIT   1026 AT TIME STEP      1, STRESS PERIOD      7

 SSM PACKAGE (SSM) FLOW RATES   PERIOD      7   STEP        1
 ------------------------------------------------------------------------------------------------
   NUMBER   CELLID                   BOUND Q        SSM CONC          RATE         PACKAGE NAME  
 ------------------------------------------------------------------------------------------------
     1      (1,4,7)               1.00000000E-03  0.0000000       0.0000000           WEL-1      
     2      (1,11,7)             -1.89000000E-02 -1.07819413E-33  0.0000000           WEL-1      
     1      (1,1,1)               0.19680067      0.0000000       0.0000000           CHD-1      
     2      (1,18,1)              1.15309642E-02  0.0000000       0.0000000           CHD-1      
     3      (1,1,2)               0.19679731      0.0000000       0.0000000           CHD-1      
     4      (1,18,2)              1.75964486E-02  0.0000000       0.0000000           CHD-1      
     5      (1,1,3)               0.19679513      0.0000000       0.0000000           CHD-1      
     6      (1,18,3)              1.96566578E-02  0.0000000       0.0000000           CHD-1      
     7      (1,1,4)               0.19679356      0.0000000       0.0000000           CHD-1      
     8      (1,18,4)              2.16440064E-02  0.0000000       0.0000000           CHD-1      
     9      (1,1,5)               0.19679067      0.0000000       0.0000000           CHD-1      
     10     (1,18,5)              2.36160031E-02  0.0000000       0.0000000           CHD-1      
     11     (1,1,6)               0.19678411      0.0000000       0.0000000           CHD-1      
     12     (1,18,6)              2.55850194E-02  0.0000000       0.0000000           CHD-1      
     13     (1,1,7)               0.19677587      0.0000000       0.0000000           CHD-1      
     14     (1,18,7)              2.75533755E-02  0.0000000       0.0000000           CHD-1      
     15     (1,1,8)               0.19678703      0.0000000       0.0000000           CHD-1      
     16     (1,18,8)              2.95212871E-02  0.0000000       0.0000000           CHD-1      
     17     (1,1,9)               0.19679779      0.0000000       0.0000000           CHD-1      
     18     (1,18,9)              3.14892008E-02  0.0000000       0.0000000           CHD-1      
     19     (1,1,10)              0.19680262      0.0000000       0.0000000           CHD-1      
     20     (1,18,10)             3.34577819E-02  0.0000000       0.0000000           CHD-1      
     21     (1,1,11)              0.19680418      0.0000000       0.0000000           CHD-1      
     22     (1,18,11)             3.54295276E-02  0.0000000       0.0000000           CHD-1      
     23     (1,1,12)              0.19680460      0.0000000       0.0000000           CHD-1      
     24     (1,18,12)             3.74167683E-02  0.0000000       0.0000000           CHD-1      
     25     (1,1,13)              0.19680470      0.0000000       0.0000000           CHD-1      
     26     (1,18,13)             3.94769394E-02  0.0000000       0.0000000           CHD-1      
     27     (1,1,14)              0.19680472      0.0000000       0.0000000           CHD-1      
     28     (1,18,14)             4.55424128E-02  0.0000000       0.0000000           CHD-1      
 ------------------------------------------------------------------------------------------------



1
  CONCENTRATION IN LAYER   1 AT END OF TIME STEP   1 IN STRESS PERIOD    7
  ---------------------------------------------------------------------------

                1               2               3               4               5               6               7               8               9              10
               11              12              13              14
 ................................................................................................................................................................
   1     5.827832E-21    1.248964E-18    2.538054E-16    4.733219E-14    7.692571E-12    9.770326E-10    7.210934E-08    9.983651E-10    7.577316E-12    4.332421E-14
         2.125119E-16    9.525182E-19    4.028058E-21    1.642299E-23
   2     2.455749E-20    7.313057E-18    2.104863E-15    5.696847E-13    1.380610E-10    2.671611E-08    2.967404E-06    2.785468E-08    1.416435E-10    5.526996E-13
         1.914980E-15    6.267817E-18    1.986021E-20    6.181048E-23
   3     2.020839E-20    1.294327E-17    8.061753E-15    4.662643E-12    2.365936E-09    9.250595E-07    1.821778E-04    1.012349E-06    2.671497E-09    5.091072E-12
         8.529754E-15    1.336823E-17    2.037393E-20    3.173954E-23
   4     3.737665E-21    6.453194E-18    1.173028E-14    2.014282E-11    2.966951E-08    3.233649E-05    1.792822E-02    3.303666E-05    3.300998E-08    2.301284E-11
         1.344225E-14    7.259224E-18    3.963467E-21    2.533236E-24
   5    -1.063993E-23    2.581808E-20    7.518775E-17    1.562741E-13    2.680315E-10    4.081595E-07    3.052882E-04    3.227363E-07   -6.819576E-11   -1.857566E-13
         2.872506E-17    5.040924E-20    3.273020E-23    2.066180E-26
   6    -2.125999E-25   -7.203896E-25    3.211670E-23    7.568583E-19    1.399374E-15    2.502680E-12    2.719057E-09   -4.160278E-12   -1.502338E-12   -3.768671E-16
         1.035637E-19    8.944689E-23    5.783497E-26    3.641680E-29
   7    -8.723395E-29    3.887218E-33    7.253048E-32    1.602575E-27    3.002762E-24    1.826605E-21    7.079619E-18    9.530715E-19   -7.111436E-16   -1.503140E-20
         5.944772E-23    3.565567E-26    2.316227E-29    1.451649E-32
   8    -7.801792E-33    1.325558E-39    3.345719E-39    2.574221E-36    3.563570E-33   -1.416733E-31    3.499098E-27    2.508211E-25   -7.495287E-20   -4.889048E-23
         4.023096E-27    5.687704E-30    2.477080E-33    1.334123E-36
   9    -1.474777E-37    9.512420E-40    2.317509E-43    1.433783E-39   -3.649258E-37   -7.071255E-35    9.555167E-30    1.170544E-25   -3.840973E-24   -5.118057E-26
        -1.094054E-29    5.751491E-34    2.730290E-37    4.895093E-41
  10    -4.026842E-43    7.468593E-45    2.159451E-46   -5.321445E-43   -1.317950E-39   -2.364035E-35   -7.336148E-31    4.159448E-29   -2.182053E-28   -5.885888E-30
        -1.274511E-32   -4.599173E-37    4.926548E-42    6.017393E-46
  11    -7.592658E-50    3.109176E-50   -1.196285E-49   -8.580386E-45   -4.012486E-40   -4.925899E-36   -1.078194E-33    1.569337E-32   -1.474054E-32   -2.060933E-34
        -1.409978E-36   -1.590310E-39   -4.670208E-44    1.491576E-49
  12    -7.102804E-56    1.389045E-56   -1.296482E-51   -2.627363E-46   -2.410222E-41   -5.554172E-40   -1.136242E-37    7.432691E-37   -1.292434E-37   -2.548393E-38
        -2.123103E-40   -7.646492E-43   -2.647961E-46   -4.100835E-51
  13    -3.790807E-61   -1.436855E-57   -2.758749E-52   -5.636215E-47   -3.067586E-45   -7.694727E-43   -1.395381E-41    3.438023E-41    1.695092E-42   -6.958229E-43
        -3.431925E-44   -1.141373E-46   -1.941764E-49   -5.189877E-53
  14     1.510030E-62    7.426993E-58    2.682393E-53   -2.324730E-51   -1.223863E-48   -7.010453E-47   -1.209298E-45    2.043691E-45    1.976263E-46   -2.750248E-47
        -2.475100E-48   -3.979210E-50   -1.026096E-52   -1.485158E-55
[...]
     10     (1,18,5)              1.34948129E-02  0.0000000       0.0000000           CHD-1      
     11     (1,1,6)               0.11125658      0.0000000       0.0000000           CHD-1      
     12     (1,18,6)              1.46424907E-02  0.0000000       0.0000000           CHD-1      
     13     (1,1,7)               0.11137086      0.0000000       0.0000000           CHD-1      
     14     (1,18,7)              1.57761460E-02  0.0000000       0.0000000           CHD-1      
     15     (1,1,8)               0.11163360      0.0000000       0.0000000           CHD-1      
     16     (1,18,8)              1.69003396E-02  0.0000000       0.0000000           CHD-1      
     17     (1,1,9)               0.11197990      0.0000000       0.0000000           CHD-1      
     18     (1,18,9)              1.80222966E-02  0.0000000       0.0000000           CHD-1      
     19     (1,1,10)              0.11222820      0.0000000       0.0000000           CHD-1      
     20     (1,18,10)             1.91534236E-02  0.0000000       0.0000000           CHD-1      
     21     (1,1,11)              0.11236014      0.0000000       0.0000000           CHD-1      
     22     (1,18,11)             2.03141576E-02  0.0000000       0.0000000           CHD-1      
     23     (1,1,12)              0.11241864      0.0000000       0.0000000           CHD-1      
     24     (1,18,12)             2.15528570E-02  0.0000000       0.0000000           CHD-1      
     25     (1,1,13)              0.11244137      0.0000000       0.0000000           CHD-1      
     26     (1,18,13)             2.29983738E-02  0.0000000       0.0000000           CHD-1      
     27     (1,1,14)              0.11244873      0.0000000       0.0000000           CHD-1      
     28     (1,18,14)             2.86984222E-02  0.0000000       0.0000000           CHD-1      
 ------------------------------------------------------------------------------------------------



1
  CONCENTRATION IN LAYER   1 AT END OF TIME STEP   1 IN STRESS PERIOD   23
  ---------------------------------------------------------------------------

                1               2               3               4               5               6               7               8               9              10
               11              12              13              14
 ................................................................................................................................................................
   1     3.778862E-18    5.486935E-16    7.225457E-14    8.196751E-12    7.560728E-10    5.074200E-08    1.892183E-06    6.000015E-08    9.912351E-10    1.096862E-11
         9.320728E-14    6.662285E-16    4.231161E-18    2.479249E-20
   2     2.601802E-17    4.297799E-15    6.543542E-13    8.721799E-11    9.624596E-09    7.873841E-07    3.704178E-05    1.069637E-06    1.607400E-08    1.514423E-10
         1.040158E-12    5.928348E-15    3.028989E-17    1.448847E-19
   3     1.174301E-16    2.267942E-14    4.215338E-12    7.130568E-10    1.023769E-07    1.108675E-05    7.109231E-04    1.819284E-05    2.416218E-07    1.817552E-09
         9.150924E-12    3.696913E-14    1.332893E-16    4.514295E-19
   4     2.799811E-16    6.022618E-14    1.427845E-11    3.582552E-09    8.092961E-07    1.360565E-04    1.182904E-02    1.966075E-04    2.207698E-06    1.249687E-08
         4.329823E-11    1.138773E-13    2.594780E-16    5.489626E-19
   5     2.574176E-17    4.454261E-15    1.122509E-12    3.359517E-10    9.938512E-08    2.314445E-05    2.427140E-03    3.554188E-05    6.097825E-07    2.748762E-09
         6.384880E-12    1.258346E-14    2.489009E-17    4.871176E-20
   6    -1.297229E-18   -1.211835E-18   -7.946304E-17    3.404815E-14    2.098784E-11    6.781723E-09    7.945220E-07   -4.936356E-10    1.167697E-08    4.117074E-11
         8.679139E-14    2.537557E-16    6.294199E-19    1.302758E-21
   7    -1.565097E-20   -4.528545E-24   -1.171178E-23    6.112904E-21    3.953925E-18    1.088312E-15    1.866117E-13    5.064603E-14    1.434070E-10    2.921767E-13
         5.915196E-16    2.379850E-18    6.382673E-21    1.332551E-23
   8    -7.507154E-23   -3.527482E-28    1.567321E-30    2.621219E-28    1.501253E-25    1.475793E-23    5.896481E-21    1.480032E-18    6.902143E-13    1.061974E-15
         2.758605E-18    1.055787E-20    2.754873E-23    5.507844E-26
   9    -1.404673E-25    1.161076E-27    2.738662E-31    3.223587E-31    1.123797E-28   -1.730628E-25   -6.865224E-21   -1.578455E-17    1.418731E-15    1.250439E-17
         1.250201E-20    2.753526E-23    6.021263E-26    1.025643E-28
  10    -6.088810E-29    8.142233E-31   -2.124710E-34    1.352410E-34   -1.852257E-30   -4.183495E-27    2.224306E-22   -3.956322E-20    9.077818E-19    2.155928E-20
         7.561959E-23    5.128521E-26    8.052988E-29    1.076231E-31
  11    -1.875620E-33    1.349056E-34   -4.948514E-36    7.621490E-36    3.528891E-31    2.604913E-27    4.618898E-25   -4.403439E-23    1.279597E-22    1.210292E-23
         1.958737E-25    4.531380E-28    1.729859E-31    1.950296E-34
  12    -4.557285E-38    1.248776E-38   -1.128308E-39    5.544220E-36    7.722356E-32    8.053004E-30    1.014268E-27   -9.215915E-27    7.248425E-27    3.712492E-27
         1.995830E-28    1.776424E-30    2.116145E-33    6.293941E-37
  13    -4.112057E-42    1.287441E-42    5.082108E-41    8.793337E-37    1.574004E-34    1.849067E-32    5.021100E-31   -2.538029E-30    1.078962E-30    8.603836E-31
         9.343055E-32    2.262380E-33    1.106928E-35    1.087768E-38
  14    -7.553223E-46   -7.664187E-46   -4.857082E-42   -3.028308E-40    1.949426E-38    4.428136E-36    2.358709E-34   -9.674457E-34    3.103482E-34    3.335371E-34
         4.951466E-35    2.123446E-36    2.650432E-38    1.018437E-40
  15    -2.165344E-49    7.470282E-47    3.416725E-45   -5.466400E-43   -7.807591E-41   -2.591416E-39    1.528958E-37   -5.546723E-37    1.459221E-37    2.131191E-37
         4.047673E-38    2.548803E-39    5.666410E-41    5.212618E-43
  16    -2.312529E-51   -5.648201E-50    2.279339E-47    2.677560E-45    4.550023E-44   -7.995255E-42    1.424969E-40   -4.625313E-40    9.542388E-41    2.044364E-40
         4.898446E-41    4.235786E-42    1.451239E-43    2.434883E-45
  17     2.009490E-54   -1.239423E-51   -1.420125E-49   -5.043107E-49    5.434817E-46   -1.663838E-44    1.736535E-43   -5.006083E-43    6.776757E-44    2.580747E-43
         7.818579E-44    9.048240E-45    4.527419E-46    1.271586E-47
  18     1.857956E-55    1.823583E-53   -4.924327E-53   -7.723366E-50    2.887106E-48   -4.202646E-47    2.649249E-46   -5.948226E-46   -1.963882E-47    3.656476E-46
         1.564849E-46    2.640153E-47    2.110838E-48    1.025329E-49

 CONCENTRATION WILL BE SAVED ON UNIT 1027 AT END OF TIME STEP    1, STRESS PERIOD   23


  MASS BUDGET FOR ENTIRE MODEL AT END OF TIME STEP    1, STRESS PERIOD  23
  ---------------------------------------------------------------------------------------------------

     CUMULATIVE MASS      M       RATES FOR THIS TIME STEP      M/T          PACKAGE NAME    
     ------------------                 ------------------------                     ----------------

           IN:                                      IN:
           ---                                      ---
     STORAGE-AQUEOUS =           1.1808       STORAGE-AQUEOUS =       5.9296E-04     MST                              
                 WEL =           5.7870                   WEL =           0.0000     SSM_WEL-1                        
                 CHD =           0.0000                   CHD =           0.0000     SSM_CHD-1                        

            TOTAL IN =           6.9678              TOTAL IN =       5.9296E-04

          OUT:                                     OUT:
          ----                                     ----
     STORAGE-AQUEOUS =           6.9678       STORAGE-AQUEOUS =       5.9296E-04     MST                              
                 WEL =       1.3125E-24                   WEL =       8.7297E-27     SSM_WEL-1                        
                 CHD =           0.0000                   CHD =           0.0000     SSM_CHD-1                        

           TOTAL OUT =           6.9678             TOTAL OUT =       5.9296E-04

            IN - OUT =       3.6874E-09              IN - OUT =       3.2344E-11

 PERCENT DISCREPANCY =           0.00     PERCENT DISCREPANCY =           0.00




         TIME SUMMARY AT END OF TIME STEP    1 IN STRESS PERIOD   23
                    SECONDS     MINUTES      HOURS       DAYS        YEARS
                    -----------------------------------------------------------
   TIME STEP LENGTH  100.00      1.6667     2.77778E-02 1.15741E-03 3.16881E-06
 STRESS PERIOD TIME  100.00      1.6667     2.77778E-02 1.15741E-03 3.16881E-06
         TOTAL TIME  2300.0      38.333     0.63889     2.66204E-02 7.28826E-05


end timestep


start timestep kper="24" kstp="1" mode="normal"


 OUTPUT CONTROL FOR STRESS PERIOD 24 IS REPEATED USING SETTINGS FROM A PREVIOUS STRESS PERIOD.
 UBDSV1 SAVING     FLOW-JA-FACE ON UNIT   1026 AT TIME STEP      1, STRESS PERIOD     24
 UBDSV1 SAVING  STORAGE-AQUEOUS ON UNIT   1026 AT TIME STEP      1, STRESS PERIOD     24
 UBDSV06 SAVING  SOURCE-SINK MIX IN MODEL GWT-P09-MF6      PACKAGE GWT-P09-MF6     CONNECTED TO MODEL GWT-P09-MF6      PACKAGE SSM              ON UNIT   1026 AT TIME STEP      1, STRESS PERIOD     24

 SSM PACKAGE (SSM) FLOW RATES   PERIOD     24   STEP        1
 ------------------------------------------------------------------------------------------------
   NUMBER   CELLID                   BOUND Q        SSM CONC          RATE         PACKAGE NAME  
 ------------------------------------------------------------------------------------------------
     1      (1,4,7)               1.00000000E-03  0.0000000       0.0000000           WEL-1      
     2      (1,11,7)             -1.89000000E-02  1.18309798E-24 -2.23605519E-26      WEL-1      
     1      (1,1,1)               0.10934322      0.0000000       0.0000000           CHD-1      
     2      (1,18,1)              3.69269856E-03  0.0000000       0.0000000           CHD-1      
     3      (1,1,2)               0.10911699      0.0000000       0.0000000           CHD-1      
     4      (1,18,2)              9.38831343E-03  0.0000000       0.0000000           CHD-1      
     5      (1,1,3)               0.10889739      0.0000000       0.0000000           CHD-1      
     6      (1,18,3)              1.08268949E-02  0.0000000       0.0000000           CHD-1      
     7      (1,1,4)               0.10876527      0.0000000       0.0000000           CHD-1      
     8      (1,18,4)              1.20589333E-02  0.0000000       0.0000000           CHD-1      
     9      (1,1,5)               0.10871564      0.0000000       0.0000000           CHD-1      
     10     (1,18,5)              1.32149042E-02  0.0000000       0.0000000           CHD-1      
     11     (1,1,6)               0.10874333      0.0000000       0.0000000           CHD-1      
     12     (1,18,6)              1.43413185E-02  0.0000000       0.0000000           CHD-1      
     13     (1,1,7)               0.10887854      0.0000000       0.0000000           CHD-1      
     14     (1,18,7)              1.54525406E-02  0.0000000       0.0000000           CHD-1      
     15     (1,1,8)               0.10917743      0.0000000       0.0000000           CHD-1      
     16     (1,18,8)              1.65535038E-02  0.0000000       0.0000000           CHD-1      
     17     (1,1,9)               0.10956828      0.0000000       0.0000000           CHD-1      
     18     (1,18,9)              1.76519773E-02  0.0000000       0.0000000           CHD-1      
     19     (1,1,10)              0.10985123      0.0000000       0.0000000           CHD-1      
     20     (1,18,10)             1.87601791E-02  0.0000000       0.0000000           CHD-1      
     21     (1,1,11)              0.11000379      0.0000000       0.0000000           CHD-1      
     22     (1,18,11)             1.98996207E-02  0.0000000       0.0000000           CHD-1      
     23     (1,1,12)              0.11007258      0.0000000       0.0000000           CHD-1      
     24     (1,18,12)             2.11200319E-02  0.0000000       0.0000000           CHD-1      
     25     (1,1,13)              0.11009978      0.0000000       0.0000000           CHD-1      
     26     (1,18,13)             2.25519101E-02  0.0000000       0.0000000           CHD-1      
     27     (1,1,14)              0.11010874      0.0000000       0.0000000           CHD-1      
     28     (1,18,14)             2.82446058E-02  0.0000000       0.0000000           CHD-1      
 ------------------------------------------------------------------------------------------------



1
  CONCENTRATION IN LAYER   1 AT END OF TIME STEP   1 IN STRESS PERIOD   24
  ---------------------------------------------------------------------------

                1               2               3               4               5               6               7               8               9              10
               11              12              13              14
 ................................................................................................................................................................
   1     4.832258E-18    6.854069E-16    8.812373E-14    9.741750E-12    8.744739E-10    5.706778E-08    2.070810E-06    6.841258E-08    1.175516E-09    1.343764E-11
         1.170539E-13    8.531117E-16    5.508019E-18    3.276117E-20
   2     3.403012E-17    5.423039E-15    7.970001E-13    1.024544E-10    1.091062E-08    8.624287E-07    3.935897E-05    1.199077E-06    1.901861E-08    1.874209E-10
         1.328514E-12    7.738235E-15    4.021780E-17    1.953605E-19
   3     1.615856E-16    2.939733E-14    5.167554E-12    8.291375E-10    1.134169E-07    1.175884E-05    7.273494E-04    1.990215E-05    2.835970E-07    2.271085E-09
         1.196730E-11    4.990269E-14    1.844932E-16    6.393745E-19
   4     4.089093E-16    8.099875E-14    1.768500E-11    4.124106E-09    8.774677E-07    1.398770E-04    1.151730E-02    2.079375E-04    2.555392E-06    1.569052E-08
         5.796330E-11    1.602478E-13    3.809148E-16    8.373556E-19
   5     4.466791E-17    6.657103E-15    1.508922E-12    4.158277E-10    1.159195E-07    2.564185E-05    2.538777E-03    4.111644E-05    7.887414E-07    4.003914E-09
         1.003843E-11    2.032040E-14    4.070859E-17    8.129689E-20
   6    -2.060982E-18   -1.875760E-18   -1.204359E-16    4.576580E-14    2.762473E-11    8.529375E-09    9.381474E-07   -2.650339E-10    1.746009E-08    7.099996E-11
         1.552338E-13    4.406236E-16    1.110246E-18    2.359954E-21
   7    -2.783608E-20   -8.205523E-24   -2.084511E-23    9.665523E-21    6.109877E-18    1.617890E-15    2.588030E-13    7.247161E-14    2.432241E-10    6.016860E-13
         1.153418E-15    4.469562E-18    1.235346E-20    2.661244E-23
   8    -1.525702E-22   -8.577219E-28    2.637083E-30    4.694307E-28    2.627191E-25    2.510165E-23    9.558587E-21    4.140443E-18    1.354094E-12    2.573686E-15
         5.994562E-18    2.222133E-20    5.983905E-23    1.237656E-25
   9    -3.335179E-25    2.766264E-27    7.662328E-31    5.618591E-31    1.915765E-28   -4.540142E-25   -1.730524E-20   -3.521693E-17    3.256263E-15    2.950439E-17
         3.403293E-20    6.687981E-23    1.482676E-25    2.633115E-28
  10    -1.716963E-28    2.293778E-30   -3.788857E-34    3.029179E-35   -4.921848E-30   -9.518838E-27    5.410418E-22   -9.870769E-20    2.403110E-18    5.759571E-20
         2.119148E-22    1.622454E-25    2.289471E-28    3.142881E-31
  11    -7.016395E-33    4.167768E-34   -1.577077E-35    1.595054E-35    9.348122E-31    6.463252E-27    1.183098E-24   -1.208913E-22    3.658266E-22    3.607009E-23
         5.803909E-25    1.408649E-27    6.123788E-31    6.196693E-34
  12    -1.812010E-37    4.787076E-38   -3.791439E-39    1.787846E-35    2.126682E-31    2.369274E-29    3.028867E-27   -2.818499E-26    2.284790E-26    1.177613E-26
         6.580350E-28    5.918113E-30    7.504423E-33    2.546331E-36
  13    -1.779076E-41    5.357474E-42    1.791176E-40    2.600697E-36    4.893267E-34    5.771134E-32    1.640578E-30   -8.509863E-30    3.790245E-30    3.009533E-30
         3.335892E-31    8.357302E-33    4.169211E-35    4.376414E-38
  14    -3.478194E-45   -2.841005E-45   -1.633434E-41   -1.195692E-39    4.075192E-38    1.402351E-35    8.453102E-34   -3.536516E-33    1.190658E-33    1.270433E-33
         1.920524E-34    8.448980E-36    1.082524E-37    4.254855E-40
  15    -1.045190E-48    2.795729E-46    1.574036E-44   -1.654227E-42   -2.886871E-40   -1.134971E-38    5.951768E-37   -2.183616E-36    5.991509E-37    8.687843E-37
         1.677614E-37    1.078690E-38    2.449465E-40    2.305090E-42
  16    -9.639632E-51   -2.940143E-49    8.346747E-47    1.116396E-44    2.483999E-43   -3.461282E-41    5.960563E-40   -1.939806E-39    4.116708E-40    8.795529E-40
         2.139602E-40    1.883352E-41    6.568250E-43    1.123093E-44
  17     8.759369E-54   -5.337533E-51   -6.532449E-49   -4.862106E-48    2.562693E-45   -7.600917E-44    7.784552E-43   -2.230176E-42    2.991156E-43    1.163185E-42
         3.573298E-43    4.199009E-44    2.133401E-45    6.089562E-47
  18     9.585559E-55    9.008673E-53   -2.164383E-52   -3.875196E-49    1.436175E-47   -2.068799E-46    1.287117E-45   -2.841168E-45   -1.296180E-46    1.727905E-45
         7.500028E-46    1.281621E-46    1.037939E-47    5.110630E-49

 CONCENTRATION WILL BE SAVED ON UNIT 1027 AT END OF TIME STEP    1, STRESS PERIOD   24


  MASS BUDGET FOR ENTIRE MODEL AT END OF TIME STEP    1, STRESS PERIOD  24
  ---------------------------------------------------------------------------------------------------

     CUMULATIVE MASS      M       RATES FOR THIS TIME STEP      M/T          PACKAGE NAME    
     ------------------                 ------------------------                     ----------------

           IN:                                      IN:
           ---                                      ---
     STORAGE-AQUEOUS =           1.2384       STORAGE-AQUEOUS =       5.7640E-04     MST                              
                 WEL =           5.7870                   WEL =           0.0000     SSM_WEL-1                        
                 CHD =           0.0000                   CHD =           0.0000     SSM_CHD-1                        

            TOTAL IN =           7.0254              TOTAL IN =       5.7640E-04

          OUT:                                     OUT:
          ----                                     ----
     STORAGE-AQUEOUS =           7.0254       STORAGE-AQUEOUS =       5.7640E-04     MST                              
                 WEL =       3.5485E-24                   WEL =       2.2361E-26     SSM_WEL-1                        
                 CHD =           0.0000                   CHD =           0.0000     SSM_CHD-1                        

           TOTAL OUT =           7.0254             TOTAL OUT =       5.7640E-04

            IN - OUT =       7.2342E-09              IN - OUT =       3.5468E-11

 PERCENT DISCREPANCY =           0.00     PERCENT DISCREPANCY =           0.00




         TIME SUMMARY AT END OF TIME STEP    1 IN STRESS PERIOD   24
                    SECONDS     MINUTES      HOURS       DAYS        YEARS
                    -----------------------------------------------------------
   TIME STEP LENGTH  100.00      1.6667     2.77778E-02 1.15741E-03 3.16881E-06
 STRESS PERIOD TIME  100.00      1.6667     2.77778E-02 1.15741E-03 3.16881E-06
         TOTAL TIME  2400.0      40.000     0.66667     2.77778E-02 7.60514E-05


end timestep

