                                   MODFLOW 6
                U.S. GEOLOGICAL SURVEY MODULAR HYDROLOGIC MODEL
                            VERSION 6.3.0 03/04/2022

   MODFLOW 6 compiled Mar 07 2022 13:50:09 with Intel(R) Fortran Intel(R) 64
   Compiler Classic for applications running on Intel(R) 64, Version 2021.5.0
                             Build 20211109_000000

This software has been approved for release by the U.S. Geological 
Survey (USGS). Although the software has been subjected to rigorous 
review, the USGS reserves the right to update the software as needed 
pursuant to further analysis and review. No warranty, expressed or 
implied, is made by the USGS or the U.S. Government as to the 
functionality of the software and related material nor shall the 
fact of release constitute any such warranty. Furthermore, the 
software is released on condition that neither the USGS nor the U.S. 
Government shall be held liable for any damages resulting from its 
authorized or unauthorized use. Also refer to the USGS Water 
Resources Software User Rights Notice for complete use, copyright, 
and distribution information.


As a work of the United States Government, this USGS product is 
in the public domain within the United States. You can copy, 
modify, distribute, and perform the work, even for commercial 
purposes, all without asking permission. Additionally, USGS 
waives copyright and related rights in the work worldwide 
through CC0 1.0 Universal Public Domain Dedication 
(https://creativecommons.org/publicdomain/zero/1.0/).

The following GNU Lesser General Public License (LGPL) libraries
are used in this USGS product:

    SPARSKIT version 2.0
      ilut, luson, and qsplit 
      (https://www-users.cse.umn.edu/~saad/software/SPARSKIT/)

    RCM - Reverse Cuthill McKee Ordering
      (https://people.math.sc.edu/Burkardt/f_src/rcm/rcm.html)

    BLAS - Basic Linear Algebra Subprograms Level 1
      (https://people.math.sc.edu/Burkardt/f_src/blas1_d/blas1_d.html)

    SPARSEKIT - Sparse Matrix Utility Package
      amux, dperm, dvperm, rperm, and cperm
      (https://people.sc.fsu.edu/~jburkardt/f77_src/sparsekit/sparsekit.html)

The following BSD-3 License libraries are used in this USGS product:

    Modern Fortran DAG Library
      Copyright (c) 2018, Jacob Williams
      All rights reserved.
      (https://github.com/jacobwilliams/daglib)

MODFLOW 6 compiler options: -Imac/obj_temp -O2 -no-heap-arrays -fpe0
-traceback -fpp -module mac/mod_temp/ -c -o mac/obj_temp/compilerversion.o

System command used to initiate simulation:
mf6

MODFLOW was compiled using uniform precision.

Real Variables
  KIND: 8
  TINY (smallest non-zero value):    2.225074-308
  HUGE (largest value):    1.797693+308
  PRECISION: 15
  BIT SIZE: 64

Integer Variables
  KIND: 4
  HUGE (largest value): 2147483647
  BIT SIZE: 32

Long Integer Variables
  KIND: 8
  HUGE (largest value): 9223372036854775807
  BIT SIZE: 64

Logical Variables
  KIND: 4
  BIT SIZE: 32
 

 OPENED mfsim.nam
 FILE TYPE:NAM   UNIT 1001   STATUS:OLD                 
 FORMAT:FORMATTED              ACCESS:SEQUENTIAL          
 ACTION:READ                

 # file generated by flopy version 3.3.6 on 12/30/2022 at 13:26:47.

 READING SIMULATION OPTIONS
    SIMULATION WILL CONTINUE EVEN IF THERE IS NONCONVERGENCE.
 END OF SIMULATION OPTIONS

 READING SIMULATION TIMING

 OPENED freyberg6.tdis
 FILE TYPE:TDIS   UNIT 1002   STATUS:OLD                 
 FORMAT:FORMATTED              ACCESS:SEQUENTIAL          
 ACTION:READ                


 TDIS -- TEMPORAL DISCRETIZATION PACKAGE,
 VERSION 1 : 11/13/2014 - INPUT READ FROM UNIT 1002
 # File generated by Flopy version 3.3.6 on 09/22/2023 at 19:14:14.
 PROCESSING TDIS OPTIONS
    SIMULATION TIME UNIT IS DAYS
 END OF TDIS OPTIONS
 PROCESSING TDIS DIMENSIONS
   25 STRESS PERIOD(S) IN SIMULATION
 END OF TDIS DIMENSIONS
 PROCESSING TDIS PERIODDATA


 STRESS PERIOD     LENGTH       TIME STEPS     MULTIPLIER FOR DELT
 ----------------------------------------------------------------------------
        1         30.00000          1                    1.000
        2         30.00000          1                    1.000
        3         30.00000          1                    1.000
        4         30.00000          1                    1.000
        5         30.00000          1                    1.000
        6         30.00000          1                    1.000
        7         30.00000          1                    1.000
        8         30.00000          1                    1.000
        9         30.00000          1                    1.000
       10         30.00000          1                    1.000
       11         30.00000          1                    1.000
       12         30.00000          1                    1.000
       13         30.00000          1                    1.000
       14         30.00000          1                    1.000
       15         30.00000          1                    1.000
       16         30.00000          1                    1.000
       17         30.00000          1                    1.000
       18         30.00000          1                    1.000
       19         30.00000          1                    1.000
       20         30.00000          1                    1.000
       21         30.00000          1                    1.000
       22         30.00000          1                    1.000
       23         30.00000          1                    1.000
       24         30.00000          1                    1.000
       25         30.00000          1                    1.000
 END OF TDIS PERIODDATA
 END OF SIMULATION TIMING

 READING SIMULATION MODELS
    GWF6 model FREYBERG6 will be created as model 1
 END OF SIMULATION MODELS

 READING SIMULATION EXCHANGES
 END OF SIMULATION EXCHANGES

 READING SOLUTIONGROUP

 Creating solution: SLN_1           

 OPENED freyberg6.ims
 FILE TYPE:IMS   UNIT 1015   STATUS:OLD                 
 FORMAT:FORMATTED              ACCESS:SEQUENTIAL          
 ACTION:READ                

 END OF SIMULATION SOLUTIONGROUP

PROCESSING MODEL CONNECTIONS

 IMS -- ITERATIVE MODEL SOLUTION PACKAGE, VERSION 6, 4/28/2017
         INPUT READ FROM UNIT 1015
 # file generated by flopy version 3.3.6 on 12/30/2022 at 13:26:47.

 PROCESSING IMS OPTIONS
 END OF IMS OPTIONS

 PROCESSING IMS NONLINEAR
 END OF IMS NONLINEAR DATA
 ***UNDER-RELAXATION WILL NOT BE USED***
 
 ***IMS LINEAR SOLVER WILL BE USED***

 IMSLINEAR -- UNSTRUCTURED LINEAR SOLUTION PACKAGE, VERSION 8, 04/28/2017

 PROCESSING LINEAR DATA
 END OF LINEAR DATA
 
 An asymmetric matrix will be solved

 OUTER ITERATION CONVERGENCE CRITERION    (DVCLOSE) =    0.100000E-02
 MAXIMUM NUMBER OF OUTER ITERATIONS        (MXITER) = 200
 SOLVER PRINTOUT INDEX                     (IPRIMS) = 2
 NONLINEAR ITERATION METHOD            (NONLINMETH) = 0
 LINEAR SOLUTION METHOD                   (LINMETH) = 1

       SOLUTION BY THE BICONJUGATE-GRADIENT STABILIZED METHOD
 ------------------------------------------------------------------
 MAXIMUM OF 200 CALLS OF SOLUTION ROUTINE
 MAXIMUM OF 100 INTERNAL ITERATIONS PER CALL TO SOLUTION ROUTINE
 LINEAR ACCELERATION METHOD            = BCGS      
 MATRIX PRECONDITIONING TYPE           = INCOMPLETE LU       
 MATRIX SCALING APPROACH               = NO SCALING          
 MATRIX REORDERING APPROACH            = ORIGINAL ORDERING        
 NUMBER OF ORTHOGONALIZATIONS          = 0
 HEAD CHANGE CRITERION FOR CLOSURE     =    0.10000E-02
 RESIDUAL CHANGE CRITERION FOR CLOSURE =    0.10000E+00
 RESIDUAL CONVERGENCE OPTION           = 0
 RESIDUAL CONVERGENCE NORM             = INFINITY NORM   
 RELAXATION FACTOR                     =    0.00000E+00



 
    Solving:  Stress period:     1    Time step:     1
 
1
                            STRESS PERIOD NO. 1, LENGTH =   30.00000    
                            -----------------------------------------------
                            NUMBER OF TIME STEPS = 1
                            MULTIPLIER FOR DELT =     1.000
                            INITIAL TIME STEP SIZE =   30.00000    



 PSEUDO-TRANSIENT CONTINUATION WILL BE APPLIED TO MODEL 1 ("FREYBERG6") DURING THIS TIME STEP

 SLN_1 OUTER ITERATION SUMMARY
 ----------------------------------------------------------------------------------------------------------
                                OUTER      INNER                    STEP   MAXIMUM CHANGE MODEL-(CELLID) OR
 OUTER ITERATION STEP       ITERATION  ITERATION  MAXIMUM CHANGE SUCCESS             MODEL-PACKAGE-(NUMBER)
 ----------------------------------------------------------------------------------------------------------
 Model                              1         13       17.413435                             1_GWF-(3,5094)
 Model                              2         33       17.581485                             1_GWF-(1,4892)
 Model                              3         56       7.3562517                             1_GWF-(1,3442)
 Model                              4         59       22.499543                             1_GWF-(1,1004)
 Model                              5         44      -8.3327149                              1_GWF-(1,236)
 Model                              6         37      -1.3928797                             1_GWF-(1,1018)
 Model                              7         31     -0.26571532                             1_GWF-(1,3366)
 Model                              8         22 -6.37708585E-02                             1_GWF-(1,3987)
 Model                              9          2 -4.48042512E-03                             1_GWF-(1,5061)
 Model                             10          3 -4.86124267E-03                               1_GWF-(1,90)
 Model                             11          1  3.38707989E-04       *                     1_GWF-(3,4949)
 Package                           11             6.50577999E-04       *            1_GWF-SFR_0-(611)-stage
 ----------------------------------------------------------------------------------------------------------


 11 CALLS TO NUMERICAL SOLUTION IN TIME STEP 1 STRESS PERIOD 1
 301 TOTAL ITERATIONS

 SLN_1 INNER ITERATION SUMMARY
 --------------------------------------------------------------------------------------------------------------------------------------
      TOTAL      OUTER      INNER                                                            MAXIMUM                                   
  ITERATION  ITERATION  ITERATION  MAXIMUM CHANGE      MAXIMUM CHANGE MODEL-(CELLID)        RESIDUAL    MAXIMUM RESIDUAL MODEL-(CELLID)
 --------------------------------------------------------------------------------------------------------------------------------------
          1          1          1       17.334779                     1_GWF-(3,5094)      -320.66328                     1_GWF-(3,5083)
          2          1          2       3.3887944                     1_GWF-(3,5078)      -80.845730                     1_GWF-(3,5058)
          3          1          3       1.4357098                     1_GWF-(3,5037)       40.508519                     1_GWF-(3,4911)
          4          1          4      0.56689190                     1_GWF-(3,4987)       23.381311                     1_GWF-(3,4911)
          5          1          5      0.19924284                     1_GWF-(3,4976)       14.065933                     1_GWF-(3,4911)
          6          1          6     -0.12427025                     1_GWF-(3,1704)       8.5299629                     1_GWF-(3,1704)
          7          1          7 -9.54722614E-02                     1_GWF-(3,1704)       5.6174820                     1_GWF-(3,4911)
          8          1          8 -6.90699259E-02                     1_GWF-(3,1704)       2.4652701                     1_GWF-(3,1582)
          9          1          9 -4.13894753E-02                     1_GWF-(3,1582)       1.3424906                     1_GWF-(3,4911)
         10          1         10 -1.81235368E-02                     1_GWF-(3,1582)      0.54520078                     1_GWF-(3,4911)
         11          1         11 -6.31852182E-03                     1_GWF-(3,1460)      0.22581003                     1_GWF-(3,4911)
         12          1         12 -1.65016703E-03                     1_GWF-(3,1198)  6.48831020E-02                     1_GWF-(3,4911)
         13          1         13 -4.91266738E-04                       1_GWF-(3,91)  4.15863079E-02                     1_GWF-(3,4911)
         14          2          1       5.6552978                     1_GWF-(1,5080)      -312.16848                     1_GWF-(3,5046)
         15          2          2       3.0416741                     1_GWF-(3,5050)      -164.26878                     1_GWF-(3,5037)
         16          2          3       5.8735674                     1_GWF-(3,4978)      -123.55475                     1_GWF-(3,4911)
         17          2          4       2.4767828                     1_GWF-(3,4947)      -48.643723                     1_GWF-(3,4866)
         18          2          5       3.3948266                     1_GWF-(3,4885)      -63.705414                     1_GWF-(3,4911)
         19          2          6       2.9486750                     1_GWF-(3,4844)      -20.688760                     1_GWF-(3,4626)
         20          2          7       1.8039709                     1_GWF-(3,4735)       20.622087                     1_GWF-(3,4911)
         21          2          8       1.4250344                     1_GWF-(3,4641)       20.718046                     1_GWF-(3,4911)
         22          2          9      0.68484946                     1_GWF-(3,4573)      -6.2254779                     1_GWF-(3,4463)
         23          2         10      0.94792312                     1_GWF-(3,4486)       10.879392                     1_GWF-(3,4911)
         24          2         11      0.30098105                     1_GWF-(3,4436)      -3.1358431                     1_GWF-(3,4156)
         25          2         12      0.51273804                     1_GWF-(3,4307)      -3.3558198                     1_GWF-(3,5011)
         26          2         13      0.15096477                     1_GWF-(3,4279)      -2.3198672                     1_GWF-(3,2851)
         27          2         14      0.52590339                     1_GWF-(3,4228)      -2.5172555                     1_GWF-(3,2727)
         28          2         15      0.17421852                     1_GWF-(3,4307)      -2.2713850                     1_GWF-(3,1966)
         29          2         16     -0.19688186                     1_GWF-(3,4639)      -2.7393220                     1_GWF-(3,2727)
         30          2         17      0.10455088                     1_GWF-(3,3935)     -0.65258078                     1_GWF-(3,2727)
         31          2         18  7.00286593E-02                     1_GWF-(3,3545)     -0.56168505                     1_GWF-(3,2727)
         32          2         19  5.52142125E-02                     1_GWF-(3,3446)     -0.90623346                     1_GWF-(3,2727)
         33          2         20  4.36496686E-02                     1_GWF-(3,3345)     -0.59943327                     1_GWF-(3,2727)
         34          2         21  2.56792570E-02                     1_GWF-(3,3315)     -0.39577027                     1_GWF-(3,2727)
         35          2         22  2.89802567E-02                     1_GWF-(3,3106)     -0.58884281                     1_GWF-(3,2727)
         36          2         23  1.34704867E-02                     1_GWF-(3,2883)     -0.28557917                     1_GWF-(3,2727)
         37          2         24  2.02728200E-02                     1_GWF-(3,2563)     -0.46677622                     1_GWF-(3,2727)
         38          2         25  9.64270335E-03                     1_GWF-(3,2563)     -0.19839000                     1_GWF-(3,2727)
         39          2         26  1.18206496E-02                     1_GWF-(3,2563)     -0.16968360                     1_GWF-(3,2727)
         40          2         27  8.34068293E-03                     1_GWF-(3,2563)     -0.13995641                       1_GWF-(3,91)
         41          2         28  9.64277148E-03                     1_GWF-(3,2563) -5.77770555E-02                       1_GWF-(3,91)
         42          2         29  2.10049055E-02                     1_GWF-(3,1772)     -0.25985301                      1_GWF-(3,670)
         43          2         30  6.56098181E-03                      1_GWF-(3,815) -2.23737861E-02                     1_GWF-(3,2727)
         44          2         31  1.24004468E-03                      1_GWF-(3,745) -2.49848503E-02                       1_GWF-(3,91)
         45          2         32  2.50374950E-03                      1_GWF-(3,178) -9.99413192E-02                     1_GWF-(3,2727)
         46          2         33  6.19952014E-04                       1_GWF-(3,20) -8.82723423E-03                       1_GWF-(3,91)
         47          3          1       1.8359773                     1_GWF-(1,5002)      -104.83901                     1_GWF-(3,4830)
         48          3          2     -0.51502583                     1_GWF-(1,4947)       40.276537                     1_GWF-(3,4931)
         49          3          3      0.40254777                     1_GWF-(3,4386)       25.596876                     1_GWF-(3,4939)
         50          3          4      0.58312218                     1_GWF-(3,4386)       33.907372                     1_GWF-(3,4911)
         51          3          5     -0.49640042                     1_GWF-(3,4889)       17.584586                     1_GWF-(3,4911)
         52          3          6      0.34903120                     1_GWF-(3,3775)       31.481037                     1_GWF-(3,4911)
         53          3          7      0.26711583                     1_GWF-(3,3698)      -7.9638629                     1_GWF-(3,4046)
         54          3          8      0.41089916                     1_GWF-(3,3887)       22.001653                     1_GWF-(3,4911)
         55          3          9      0.33712960                     1_GWF-(3,3908)      -6.2378621                     1_GWF-(3,3883)
         56          3         10      0.41261779                     1_GWF-(3,3954)       16.762816                     1_GWF-(3,4911)
         57          3         11      0.37599185                     1_GWF-(3,3445)      -4.4852124                     1_GWF-(3,3675)
         58          3         12      0.58276276                     1_GWF-(3,3442)       11.793499                     1_GWF-(3,4911)
         59          3         13      0.52509527                     1_GWF-(3,3442)      -4.0639090                     1_GWF-(3,4626)
         60          3         14      0.61378848                     1_GWF-(3,3435)      -5.3807214                     1_GWF-(3,5011)
         61          3         15      0.57291694                     1_GWF-(3,3430)      -3.5243798                     1_GWF-(3,4647)
         62          3         16      0.44933389                     1_GWF-(3,3334)      -4.4216306                     1_GWF-(3,2727)
         63          3         17      0.40988805                     1_GWF-(3,3316)      -2.7773742                     1_GWF-(3,2727)
         64          3         18      0.41252741                     1_GWF-(3,3307)      -3.8690905                     1_GWF-(3,2727)
         65          3         19      0.36936958                     1_GWF-(3,3281)      -1.7813962                     1_GWF-(3,2727)
         66          3         20      0.33588477                     1_GWF-(3,2563)      -3.1563681                     1_GWF-(3,2727)
         67          3         21      0.17869755                     1_GWF-(3,2563)      -1.4587506                     1_GWF-(3,2727)
         68          3         22      0.12222685                     1_GWF-(3,2563)      -2.3248593                     1_GWF-(3,2727)
         69          3         23      0.10454355                     1_GWF-(3,2563)      -1.0199425                     1_GWF-(3,1468)
         70          3         24      0.12150871                     1_GWF-(3,2196)      -2.3299298                     1_GWF-(3,2727)
         71          3         25  8.52409533E-02                     1_GWF-(3,2200)     -0.84892221                     1_GWF-(3,1468)
         72          3         26  8.20042584E-02                     1_GWF-(3,1885)      -2.2379249                     1_GWF-(3,2727)
         73          3         27  5.39819474E-02                     1_GWF-(3,1882)     -0.70054182                     1_GWF-(3,1468)
         74          3         28  7.44081749E-02                     1_GWF-(3,1755)      -1.4024105                     1_GWF-(3,2727)
         75          3         29      0.10445664                     1_GWF-(3,1755)     -0.50476488                     1_GWF-(3,1468)
         76          3         30      0.11227762                     1_GWF-(3,1615)      -1.2281470                     1_GWF-(3,2727)
         77          3         31  6.99370444E-02                     1_GWF-(3,1612)     -0.42207800                       1_GWF-(3,23)
         78          3         32  5.70386019E-02                     1_GWF-(3,1529)     -0.80156851                     1_GWF-(3,2727)
         79          3         33  5.10103084E-02                     1_GWF-(3,1004)     -0.37662450                       1_GWF-(3,23)
         80          3         34  6.13161512E-02                     1_GWF-(3,1004)     -0.51455354                     1_GWF-(3,1362)
         81          3         35  5.67847169E-02                     1_GWF-(3,1004)     -0.31634622                       1_GWF-(3,23)
         82          3         36  4.42835163E-02                     1_GWF-(3,1004)     -0.48688017                     1_GWF-(3,1589)
         83          3         37  3.74786974E-02                     1_GWF-(3,1004)     -0.26465036                       1_GWF-(3,23)
         84          3         38  4.98128106E-02                     1_GWF-(3,1004)      0.45833433                     1_GWF-(3,1468)
         85          3         39  4.47819439E-02                     1_GWF-(3,1004)     -0.19143538                       1_GWF-(3,23)
         86          3         40  3.76119624E-02                      1_GWF-(3,463)      0.39426488                     1_GWF-(3,1468)
         87          3         41  2.18432244E-02                      1_GWF-(3,463)     -0.13715242                       1_GWF-(3,23)
         88          3         42  1.78032985E-02                      1_GWF-(3,393)      0.32632019                     1_GWF-(3,1468)
         89          3         43  1.38434725E-02                      1_GWF-(3,393)     -0.10229544                       1_GWF-(3,23)
         90          3         44 -3.70064823E-03                     1_GWF-(3,1895)     -0.35332609                     1_GWF-(3,1468)
         91          3         45  1.72234220E-02                      1_GWF-(3,376)     -0.10397553                     1_GWF-(3,1468)
         92          3         46  8.08997775E-03                      1_GWF-(3,228) -7.81307777E-02                     1_GWF-(3,1468)
         93          3         47  5.88106193E-03                      1_GWF-(3,178) -8.58917203E-02                     1_GWF-(3,1468)
         94          3         48  4.98223038E-03                      1_GWF-(3,153)  5.04641783E-02                     1_GWF-(3,1589)
         95          3         49  4.49071979E-03                      1_GWF-(3,125)  5.46226597E-02                     1_GWF-(3,1589)
         96          3         50  5.03040810E-03                      1_GWF-(3,125) -6.54161308E-02                     1_GWF-(3,1468)
         97          3         51  5.66885536E-03                      1_GWF-(3,125) -2.60406987E-02                       1_GWF-(3,23)
         98          3         52  4.40757665E-03                       1_GWF-(3,71) -1.86465309E-02                       1_GWF-(3,23)
         99          3         53 -2.52238016E-03                     1_GWF-(3,1737)     -0.22849149                     1_GWF-(3,1468)
        100          3         54  5.55712525E-03                      1_GWF-(3,125)  1.13098021E-02                     1_GWF-(3,1589)
        101          3         55  1.95470701E-03                      1_GWF-(3,125) -2.42960775E-02                     1_GWF-(3,1468)
        102          3         56  9.73203912E-04                      1_GWF-(3,125) -4.60190118E-03                       1_GWF-(3,23)
        103          4          1     -0.27752980                     1_GWF-(1,4841)       17.485177                     1_GWF-(3,2563)
        104          4          2      0.16461620                     1_GWF-(1,4249)      -5.8604339                     1_GWF-(3,4709)
        105          4          3      0.10321108                     1_GWF-(3,4600)      -5.2676292                     1_GWF-(3,2576)
        106          4          4      0.14096748                     1_GWF-(1,1670)       5.7971043                     1_GWF-(3,4911)
        107          4          5      0.24608496                     1_GWF-(3,1648)       9.0699280                     1_GWF-(3,4911)
        108          4          6      0.38166044                     1_GWF-(3,1736)       7.3862461                     1_GWF-(3,4911)
        109          4          7      0.64511805                     1_GWF-(3,1768)       9.5785477                     1_GWF-(3,4911)
        110          4          8      0.56161179                     1_GWF-(3,1769)       9.4232619                     1_GWF-(3,4911)
        111          4          9      0.44309359                     1_GWF-(3,1772)       6.7484887                     1_GWF-(3,4911)
        112          4         10      0.63014610                     1_GWF-(3,1772)       6.8759214                     1_GWF-(3,4911)
        113          4         11      0.97437064                     1_GWF-(3,1771)       8.8869905                     1_GWF-(3,4911)
        114          4         12       1.0448420                     1_GWF-(3,1767)       8.8011397                     1_GWF-(3,4911)
        115          4         13       1.1557637                     1_GWF-(3,1607)       7.2847527                     1_GWF-(3,4911)
        116          4         14       1.6013063                     1_GWF-(3,1554)       7.5202261                     1_GWF-(3,4911)
        117          4         15       2.2454952                     1_GWF-(3,1515)       6.5562978                     1_GWF-(3,4911)
        118          4         16       1.8260590                     1_GWF-(3,1428)      -8.2209504                     1_GWF-(3,2727)
        119          4         17       1.7374442                     1_GWF-(3,1421)       5.8857364                     1_GWF-(3,4876)
        120          4         18       2.7073562                     1_GWF-(3,1331)       7.4122583                     1_GWF-(3,2857)
        121          4         19       2.8684985                     1_GWF-(3,1318)       5.5327426                     1_GWF-(3,4046)
        122          4         20       2.1498834                     1_GWF-(3,1004)       8.5497763                     1_GWF-(3,2857)
        123          4         21       1.1527838                     1_GWF-(3,1004)       4.9365645                     1_GWF-(3,2857)
        124          4         22      0.57243584                     1_GWF-(3,1004)       6.0372662                     1_GWF-(3,2857)
        125          4         23      0.33517200                      1_GWF-(3,501)       4.2535138                     1_GWF-(3,3883)
        126          4         24      0.24225122                       1_GWF-(3,45)       4.0214513                     1_GWF-(3,1468)
        127          4         25      0.15832529                       1_GWF-(3,39)       3.8131227                     1_GWF-(3,3904)
        128          4         26      0.10444758                       1_GWF-(3,25)       5.4993917                     1_GWF-(3,1468)
        129          4         27  5.96354637E-02                       1_GWF-(3,20)       5.5182746                     1_GWF-(3,1468)
        130          4         28  8.64458232E-03                       1_GWF-(3,20)       3.5160502                     1_GWF-(3,3904)
        131          4         29  3.38898682E-02                     1_GWF-(3,3725)       3.5658620                     1_GWF-(3,3904)
        132          4         30      0.10195817                     1_GWF-(3,3561)       3.6902268                     1_GWF-(3,3904)
        133          4         31      0.23421630                     1_GWF-(3,3527)       3.9478279                     1_GWF-(3,3904)
        134          4         32      0.40245671                     1_GWF-(3,3419)      -4.8675683                     1_GWF-(3,1468)
        135          4         33      0.82931845                     1_GWF-(3,3343)      -5.3243988                     1_GWF-(3,1468)
        136          4         34       2.1061134                     1_GWF-(3,3323)       7.4326623                     1_GWF-(3,4270)
        137          4         35       24.718074                     1_GWF-(3,3315)      -50.975445                     1_GWF-(3,1468)
        138          4         36      -40.042414                     1_GWF-(3,3306)      -8.6985212                     1_GWF-(3,4270)
        139          4         37       6.6605899                     1_GWF-(3,3315)      -1.5079427                     1_GWF-(3,4297)
        140          4         38       1.1456482                     1_GWF-(3,3323)      -1.3617487                     1_GWF-(3,1468)
        141          4         39      -1.1527217                     1_GWF-(3,2804)       5.3034399                     1_GWF-(3,1468)
        142          4         40      0.39934777                     1_GWF-(3,3107)     -0.69310914                     1_GWF-(3,3904)
        143          4         41      0.23718512                     1_GWF-(3,3306)     -0.45926620                     1_GWF-(3,4297)
        144          4         42     -0.24869722                     1_GWF-(3,2538)      -2.6469751                       1_GWF-(3,21)
        145          4         43      0.51789005                     1_GWF-(3,2777) -8.13280125E-02                      1_GWF-(3,317)
        146          4         44  3.60630025E-02                     1_GWF-(3,2699)     -0.15823697                       1_GWF-(3,91)
        147          4         45     -0.12939984                     1_GWF-(3,2883)     -0.60450612                     1_GWF-(3,1468)
        148          4         46 -1.40254099E-02                     1_GWF-(3,2777)     -0.11441978                     1_GWF-(3,2727)
        149          4         47  9.98588722E-02                     1_GWF-(3,2755)     -0.10837071                     1_GWF-(3,4138)
        150          4         48  1.13233450E-03                     1_GWF-(3,2646) -5.33142449E-02                     1_GWF-(3,2727)
        151          4         49 -1.10815496E-03                     1_GWF-(3,1740) -6.31885117E-02                     1_GWF-(3,4138)
        152          4         50 -2.90557826E-03                     1_GWF-(3,2699) -4.72658339E-02                     1_GWF-(3,2727)
        153          4         51  2.83580458E-02                     1_GWF-(3,2683)      0.10571956                     1_GWF-(3,1468)
        154          4         52  1.09925071E-02                     1_GWF-(3,2755) -2.38414032E-02                       1_GWF-(3,21)
        155          4         53 -2.83897819E-02                     1_GWF-(3,2755) -3.62581928E-02                     1_GWF-(3,2727)
        156          4         54  4.89138647E-02                     1_GWF-(3,2755)  4.60895082E-02                     1_GWF-(3,4138)
        157          4         55  4.89191694E-03                     1_GWF-(3,2746) -2.52799504E-02                       1_GWF-(3,23)
        158          4         56 -1.21855022E-02                     1_GWF-(3,1940)  3.19210915E-02                     1_GWF-(3,1468)
        159          4         57  1.19332736E-03                     1_GWF-(3,1740)  7.62716389E-03                     1_GWF-(3,2476)
        160          4         58  2.66729321E-03                     1_GWF-(3,1331)  2.37650099E-02                     1_GWF-(3,1468)
        161          4         59 -2.58382782E-05                     1_GWF-(3,4911)  6.34611894E-03                     1_GWF-(3,2727)
        162          5          1      -2.2756809                      1_GWF-(1,236)      -31.984574                     1_GWF-(3,2727)
        163          5          2      0.38644289                     1_GWF-(1,2718)       25.080093                     1_GWF-(3,1017)
        164          5          3     -0.47321526                      1_GWF-(2,619)       19.968696                      1_GWF-(3,192)
        165          5          4     -0.48985755                     1_GWF-(3,1119)       27.897016                     1_GWF-(3,1468)
        166          5          5      -1.1686520                      1_GWF-(1,416)       24.899060                     1_GWF-(3,1004)
        167          5          6     -0.99587991                     1_GWF-(3,1004)       24.326054                       1_GWF-(3,91)
        168          5          7     -0.75128888                     1_GWF-(1,1025)       20.165575                       1_GWF-(3,91)
        169          5          8     -0.38667732                     1_GWF-(1,1002)       22.099534                       1_GWF-(3,91)
        170          5          9     -0.48212571                        1_GWF-(2,1)       16.221733                       1_GWF-(3,91)
        171          5         10     -0.50762097                       1_GWF-(1,93)       15.917101                       1_GWF-(3,91)
        172          5         11     -0.37644024                       1_GWF-(1,90)       13.013555                       1_GWF-(3,91)
        173          5         12      0.16323325                       1_GWF-(1,90)       13.750541                       1_GWF-(3,91)
        174          5         13      -1.3262278                      1_GWF-(1,786)       12.132008                       1_GWF-(3,21)
        175          5         14      -1.0494084                      1_GWF-(1,194)       9.2797397                       1_GWF-(3,21)
        176          5         15 -5.48859883E-02                       1_GWF-(2,90)       5.4312458                       1_GWF-(3,23)
        177          5         16 -3.85071430E-02                     1_GWF-(1,3605)       11.418235                       1_GWF-(3,21)
        178          5         17     -0.97994177                       1_GWF-(1,90)       3.2317998                       1_GWF-(3,21)
        179          5         18      0.34670400                       1_GWF-(2,90)       4.3643212                       1_GWF-(3,23)
        180          5         19     -0.16714067                        1_GWF-(2,1)       2.3931813                       1_GWF-(3,23)
        181          5         20     -0.15198964                       1_GWF-(3,91)       2.9108432                       1_GWF-(3,23)
        182          5         21 -7.31815426E-02                       1_GWF-(1,90)       1.7039574                       1_GWF-(3,23)
        183          5         22     -0.12175488                        1_GWF-(3,5)       2.0193349                      1_GWF-(3,103)
        184          5         23     -0.11365745                      1_GWF-(2,194)       1.3032909                       1_GWF-(3,23)
        185          5         24     -0.17955819                        1_GWF-(1,2)      0.97876456                     1_GWF-(3,1468)
        186          5         25  5.56178358E-03                      1_GWF-(1,417)      0.85813811                       1_GWF-(3,91)
        187          5         26     -0.15010385                        1_GWF-(1,2)      0.64400386                      1_GWF-(3,101)
        188          5         27 -5.65615674E-02                        1_GWF-(2,1)      0.53367066                       1_GWF-(3,91)
        189          5         28 -5.41851424E-02                       1_GWF-(1,90)      0.44618975                       1_GWF-(3,91)
        190          5         29  2.91318098E-03                        1_GWF-(3,3)      0.58421137                     1_GWF-(3,1468)
        191          5         30 -5.95280284E-02                       1_GWF-(1,90)      0.63534566                     1_GWF-(3,1468)
        192          5         31 -3.71044433E-02                       1_GWF-(1,90)      0.35982534                     1_GWF-(3,1468)
        193          5         32 -3.51268907E-02                       1_GWF-(1,90)      0.47003597                     1_GWF-(3,1362)
        194          5         33 -3.14953808E-02                       1_GWF-(1,90)      0.24532241                     1_GWF-(3,2727)
        195          5         34 -3.19903776E-02                       1_GWF-(1,90)      0.31761812                     1_GWF-(3,1362)
        196          5         35 -1.83791445E-02                      1_GWF-(1,194)      0.20822606                     1_GWF-(3,1362)
        197          5         36 -1.15446545E-02                     1_GWF-(1,1198)      0.35575591                     1_GWF-(3,1468)
        198          5         37 -6.28999767E-03                     1_GWF-(1,1198)      0.13948884                     1_GWF-(3,2727)
        199          5         38 -1.33221387E-02                     1_GWF-(3,2563)      0.99481275                     1_GWF-(3,1468)
        200          5         39 -4.44153320E-03                     1_GWF-(3,1468)  9.53017735E-02                     1_GWF-(3,2727)
        201          5         40 -1.64501677E-02                     1_GWF-(3,2563)      0.34036924                     1_GWF-(3,1468)
        202          5         41 -1.49328112E-02                     1_GWF-(3,2563)  3.52623420E-02                     1_GWF-(3,1468)
        203          5         42 -1.13373660E-02                     1_GWF-(3,2563)  1.83494313E-03                     1_GWF-(3,2621)
        204          5         43 -5.18040268E-03                      1_GWF-(1,887)      0.11499150                     1_GWF-(3,4911)
        205          5         44  2.32323776E-04                       1_GWF-(1,23) -8.56244137E-03                     1_GWF-(3,1468)
        206          6          1     -0.22963623                     1_GWF-(1,3717)       2.7605949                     1_GWF-(3,2307)
        207          6          2 -4.97958447E-02                     1_GWF-(1,1945)       3.3515341                     1_GWF-(3,1991)
        208          6          3     -0.51157705                     1_GWF-(2,1679)       14.278691                     1_GWF-(3,1859)
        209          6          4     -0.45579483                     1_GWF-(1,1720)       19.290745                     1_GWF-(3,1468)
        210          6          5  8.18167840E-02                     1_GWF-(1,1806)       16.321829                     1_GWF-(3,2727)
        211          6          6     -0.30610100                     1_GWF-(1,2456)       11.398631                     1_GWF-(3,2727)
        212          6          7     -0.20189883                     1_GWF-(1,1589)       7.3807842                     1_GWF-(3,3236)
        213          6          8     -0.15078574                     1_GWF-(1,1235)       5.4498090                     1_GWF-(3,3236)
        214          6          9 -8.74752349E-02                     1_GWF-(1,3222)       4.2295186                     1_GWF-(3,3074)
        215          6         10 -9.80865762E-02                     1_GWF-(1,3222)       4.1275145                     1_GWF-(3,2458)
        216          6         11     -0.11740032                     1_GWF-(1,3605)       4.0543681                     1_GWF-(3,1966)
        217          6         12      0.29278628                     1_GWF-(1,2088)       5.0855896                     1_GWF-(3,2851)
        218          6         13     -0.61031453                     1_GWF-(1,1966)      -2.3881879                     1_GWF-(3,2727)
        219          6         14     -0.11456463                     1_GWF-(1,1847)       1.4873403                     1_GWF-(3,1582)
        220          6         15 -8.36794157E-02                     1_GWF-(1,1704)      0.97495512                     1_GWF-(3,1353)
        221          6         16 -3.91378798E-02                     1_GWF-(1,1704)      0.72700496                     1_GWF-(3,1198)
        222          6         17 -2.64358746E-02                     1_GWF-(1,1460)      0.59053377                       1_GWF-(3,91)
        223          6         18 -1.80390398E-02                     1_GWF-(1,1353)      0.49370301                       1_GWF-(3,91)
        224          6         19 -1.27491044E-02                     1_GWF-(1,1198)      0.75306360                     1_GWF-(3,4911)
        225          6         20 -5.77120639E-03                      1_GWF-(1,887)      0.37233902                       1_GWF-(3,91)
        226          6         21 -4.45902933E-03                       1_GWF-(1,90)      0.33751318                       1_GWF-(3,91)
        227          6         22 -1.80206786E-02                       1_GWF-(1,90)       1.7341592                     1_GWF-(3,4911)
        228          6         23 -1.93074486E-03                     1_GWF-(3,4911)      0.20605928                       1_GWF-(3,23)
        229          6         24 -1.00632296E-02                        1_GWF-(2,1)       1.3654462                     1_GWF-(3,4911)
        230          6         25  8.85565282E-03                       1_GWF-(3,44)      0.20660089                       1_GWF-(3,23)
        231          6         26  2.05957837E-02                       1_GWF-(3,39)      0.91023565                     1_GWF-(3,4911)
        232          6         27      0.19595662                       1_GWF-(3,44)       1.1685999                       1_GWF-(3,23)
        233          6         28     -0.44736645                       1_GWF-(3,44)     -0.97370373                       1_GWF-(3,23)
        234          6         29      0.15589072                       1_GWF-(3,46)     -0.11120922                       1_GWF-(3,23)
        235          6         30  9.06066707E-03                     1_GWF-(2,2984)     -0.86832928                     1_GWF-(3,4911)
        236          6         31 -1.12304328E-02                     1_GWF-(1,2817)     -0.11776775                     1_GWF-(3,4911)
        237          6         32 -4.49971750E-03                     1_GWF-(3,3003)     -0.16032628                     1_GWF-(3,4911)
        238          6         33 -2.77393510E-03                     1_GWF-(1,2764) -2.48738861E-02                       1_GWF-(3,23)
        239          6         34 -2.62088904E-03                     1_GWF-(3,2741) -3.76871304E-02                       1_GWF-(3,23)
        240          6         35 -1.70454451E-03                     1_GWF-(3,2752) -1.24701518E-02                       1_GWF-(3,23)
        241          6         36 -1.23672777E-03                     1_GWF-(1,2789) -1.93122769E-02                       1_GWF-(3,23)
        242          6         37 -8.27220008E-04                     1_GWF-(3,2791) -5.61075800E-03                       1_GWF-(3,91)
        243          7          1 -7.28015563E-02                     1_GWF-(1,5037)      0.73906315                     1_GWF-(3,5048)
        244          7          2 -8.85430870E-03                     1_GWF-(1,4564)      0.67096842                     1_GWF-(3,4445)
        245          7          3 -3.77674064E-02                     1_GWF-(2,4689)       1.2349247                     1_GWF-(3,2961)
        246          7          4 -5.00759416E-02                     1_GWF-(1,3587)       1.4937731                     1_GWF-(3,1468)
        247          7          5 -5.26752336E-02                     1_GWF-(1,3474)      -1.3838160                     1_GWF-(3,4967)
        248          7          6 -6.12682012E-02                     1_GWF-(1,3587)      -1.4214187                     1_GWF-(3,4970)
        249          7          7  2.06075035E-02                     1_GWF-(3,4939)      -1.0686916                     1_GWF-(3,4972)
        250          7          8 -3.47423264E-02                     1_GWF-(1,3579)      0.85179235                     1_GWF-(3,3612)
        251          7          9 -2.18848857E-02                     1_GWF-(1,3222)      0.79958674                     1_GWF-(3,3612)
        252          7         10 -1.79982869E-02                     1_GWF-(1,3222)      0.71500717                     1_GWF-(3,3619)
        253          7         11 -2.34096770E-02                     1_GWF-(1,3605)      0.62077406                     1_GWF-(3,2458)
        254          7         12 -1.94697290E-02                     1_GWF-(1,3605)      0.59060798                     1_GWF-(3,2088)
        255          7         13 -2.10554460E-02                     1_GWF-(1,2604)      0.53239197                     1_GWF-(3,4911)
        256          7         14 -1.65490488E-02                     1_GWF-(1,2458)      0.44531340                     1_GWF-(3,1704)
        257          7         15 -1.78751069E-02                     1_GWF-(1,2088)      0.36362902                     1_GWF-(3,4911)
        258          7         16 -1.92771744E-02                     1_GWF-(1,1966)      0.24001620                     1_GWF-(3,1353)
        259          7         17 -1.59516920E-02                     1_GWF-(1,1353)     -0.68449805                     1_GWF-(3,4911)
        260          7         18 -6.68276696E-03                       1_GWF-(1,90)      0.12012835                       1_GWF-(3,91)
        261          7         19 -7.88149102E-03                       1_GWF-(1,90)     -0.40600766                     1_GWF-(3,4911)
        262          7         20 -3.68448634E-03                       1_GWF-(1,90)  7.60052171E-02                       1_GWF-(3,23)
        263          7         21 -4.63897860E-03                      1_GWF-(1,106)     -0.15024776                     1_GWF-(3,4911)
        264          7         22 -2.87908523E-03                        1_GWF-(1,2)  5.70971148E-02                       1_GWF-(3,23)
        265          7         23 -5.36717585E-03                        1_GWF-(1,2)  4.39778024E-02                       1_GWF-(3,23)
        266          7         24  8.40961778E-04                     1_GWF-(1,2719)     -0.19770535                     1_GWF-(3,4911)
        267          7         25 -3.59844416E-03                      1_GWF-(1,142) -3.62520864E-02                     1_GWF-(3,4911)
        268          7         26 -3.29973257E-03                      1_GWF-(1,142) -8.34547068E-02                     1_GWF-(3,4911)
        269          7         27 -2.84839883E-03                      1_GWF-(1,142)  1.85173477E-02                       1_GWF-(3,23)
        270          7         28 -2.07558616E-03                      1_GWF-(1,184)  1.35202169E-02                      1_GWF-(3,474)
        271          7         29     -0.36060309                      1_GWF-(1,184)     -0.83292209                       1_GWF-(3,23)
        272          7         30      0.35675754                      1_GWF-(1,184) -1.75092006E-02                     1_GWF-(3,4911)
        273          7         31 -8.76352259E-04                        1_GWF-(1,2)  7.05251075E-03                       1_GWF-(3,91)
        274          8          1 -1.87206222E-02                     1_GWF-(1,5037)      0.18882365                     1_GWF-(3,5048)
        275          8          2 -2.38085584E-03                     1_GWF-(1,4949)      0.16190882                     1_GWF-(3,4633)
        276          8          3 -6.10849592E-03                     1_GWF-(2,4689)      0.18909588                     1_GWF-(3,4248)
        277          8          4 -8.10480201E-03                     1_GWF-(3,4652)      0.21804285                     1_GWF-(3,4400)
        278          8          5 -9.37342254E-03                     1_GWF-(1,4638)      0.24593612                     1_GWF-(3,4393)
        279          8          6 -8.17400221E-03                     1_GWF-(1,4135)     -0.23443983                     1_GWF-(3,4970)
        280          8          7 -2.72856568E-03                     1_GWF-(1,4386)     -0.20200244                     1_GWF-(3,4972)
        281          8          8 -8.51697332E-03                     1_GWF-(1,4386)     -0.18954096                     1_GWF-(3,4972)
        282          8          9 -5.49648250E-03                     1_GWF-(1,4386)      0.16997166                     1_GWF-(3,3619)
        283          8         10 -5.75929493E-03                     1_GWF-(1,3222)      0.15928636                     1_GWF-(3,3619)
        284          8         11 -6.20439528E-03                     1_GWF-(1,3222)     -0.14998134                     1_GWF-(3,4911)
        285          8         12 -5.79435494E-03                     1_GWF-(1,3605)     -0.22723756                     1_GWF-(3,4911)
        286          8         13 -5.22300781E-03                     1_GWF-(1,3605)      0.12339288                     1_GWF-(3,1966)
        287          8         14 -3.79118790E-03                     1_GWF-(1,3605)      0.11171115                     1_GWF-(3,1847)
        288          8         15 -3.39954836E-03                     1_GWF-(1,2458)  9.39788593E-02                     1_GWF-(3,1704)
        289          8         16 -2.48810645E-03                     1_GWF-(1,2088)  7.78681912E-02                     1_GWF-(3,1582)
        290          8         17 -2.21872768E-03                     1_GWF-(1,1847) -6.26721385E-02                     1_GWF-(3,4477)
        291          8         18 -1.58567390E-03                     1_GWF-(1,1704) -5.17214386E-02                     1_GWF-(3,4477)
        292          8         19 -1.52909390E-03                     1_GWF-(1,1460) -4.70080088E-02                     1_GWF-(3,4445)
        293          8         20 -1.09150146E-03                     1_GWF-(1,1353) -3.81151830E-02                     1_GWF-(3,4297)
        294          8         21 -1.01968570E-03                     1_GWF-(1,1043) -3.82232831E-02                     1_GWF-(3,4297)
        295          8         22 -2.69496788E-04                     1_GWF-(3,4343)  3.35420140E-02                       1_GWF-(3,91)
        296          9          1 -4.16884730E-03                     1_GWF-(1,5061)  3.56084327E-02                     1_GWF-(3,5078)
        297          9          2 -4.75079337E-04                     1_GWF-(3,5050)  2.90380263E-02                       1_GWF-(3,91)
        298         10          1 -1.05877584E-03                     1_GWF-(1,4952)  3.46307998E-02                     1_GWF-(3,4874)
        299         10          2 -3.20768093E-03                       1_GWF-(1,90) -6.37397330E-02                     1_GWF-(3,5048)
        300         10          3 -8.72298947E-04                     1_GWF-(1,4386) -4.07652960E-02                     1_GWF-(3,4972)
        301         11          1  3.38707989E-04                     1_GWF-(3,4949) -2.27559706E-02                     1_GWF-(3,4939)
 --------------------------------------------------------------------------------------------------------------------------------------


 
    Solving:  Stress period:     2    Time step:     1
 
1
                            STRESS PERIOD NO. 2, LENGTH =   30.00000    
                            -----------------------------------------------
                            NUMBER OF TIME STEPS = 1
                            MULTIPLIER FOR DELT =     1.000
                            INITIAL TIME STEP SIZE =   30.00000    

 SLN_1 OUTER ITERATION SUMMARY
 ----------------------------------------------------------------------------------------------------------
                                OUTER      INNER                    STEP   MAXIMUM CHANGE MODEL-(CELLID) OR
 OUTER ITERATION STEP       ITERATION  ITERATION  MAXIMUM CHANGE SUCCESS             MODEL-PACKAGE-(NUMBER)
 ----------------------------------------------------------------------------------------------------------
 Model                              1         21     -0.38547879                             1_GWF-(1,1459)
 Model                              2         16 -4.06876279E-02                             1_GWF-(1,2563)
 Model                              3          2 -3.73258234E-03                             1_GWF-(1,5043)
 Model                              4          1 -3.93034498E-04       *                     1_GWF-(3,1460)
 Package                            4                  2661.9597                   1_GWF-SFR_0-(639)-inflow
 Model                              5          1 -4.74248372E-04       *                     1_GWF-(3,1460)
 Package                            5                  49.747546                   1_GWF-SFR_0-(293)-inflow
 Model                              6          1 -1.85466493E-04       *                     1_GWF-(3,1353)
 Package                            6                 -94.761050                   1_GWF-SFR_0-(639)-inflow
 Model                              7          4 -2.90888693E-03                               1_GWF-(3,31)
 Model                              8          1  1.45028573E-04       *                     1_GWF-(3,1847)
 Package                            8                 -827.62155                   1_GWF-SFR_0-(639)-inflow
 Model                              9          1  1.22073919E-04       *                     1_GWF-(3,1847)
 Package                            9                  61.153291                   1_GWF-SFR_0-(293)-inflow
 Model                             10          1  1.68153956E-04       *                     1_GWF-(3,1847)
 Package                           10                 -32.605692                   1_GWF-SFR_0-(639)-inflow
 Model                             11          1 -5.31115253E-05       *                     1_GWF-(1,4692)
 Package                           11                  65.289618                   1_GWF-SFR_0-(293)-inflow
 Model                             12          3  8.64797601E-04       *                     1_GWF-(3,2088)
 Package                           12                 -23.085584                   1_GWF-SFR_0-(639)-inflow
 Model                             13          1 -8.58244189E-05       *                     1_GWF-(3,1460)
 Package                           13                 -276.68041                   1_GWF-SFR_0-(639)-inflow
 Model                             14          1 -3.30820133E-05       *                     1_GWF-(3,1353)
 Package                           14                  14.197366                   1_GWF-SFR_0-(293)-inflow
 Model                             15          1 -1.27692368E-04       *                     1_GWF-(3,1460)
 Package                           15                 -21.828506                   1_GWF-SFR_0-(639)-inflow
 Model                             16          1  2.15095589E-05       *                     1_GWF-(3,4911)
 Package                           16                 -18.558970                   1_GWF-SFR_0-(639)-inflow
 Model                             17          1 -1.96142372E-04       *                     1_GWF-(3,1353)
 Package                           17                 -3.2437682                   1_GWF-SFR_0-(639)-inflow
 Model                             18          1  1.11981820E-05       *                     1_GWF-(1,3931)
 Package                           18                 -65.152905                   1_GWF-SFR_0-(639)-inflow
 Model                             19          1  4.58413751E-05       *                     1_GWF-(1,3850)
 Package                           19                  2.9963560                   1_GWF-SFR_0-(293)-inflow
 Model                             20          1  8.50365671E-06       *                     1_GWF-(1,4067)
 Package                           20                 -19.077586                   1_GWF-SFR_0-(639)-inflow
 Model                             21          1  9.30835036E-06       *                     1_GWF-(3,3778)
 Package                           21                 -2.4515123                   1_GWF-SFR_0-(639)-inflow
 Model                             22          1  1.16570033E-05       *                     1_GWF-(1,3682)
 Package                           22                 -5.1847310                   1_GWF-SFR_0-(639)-inflow
 Model                             23          1  6.65180197E-06       *                     1_GWF-(1,4067)
 Package                           23                 -7.3981748                   1_GWF-SFR_0-(639)-inflow
 Model                             24          1  1.67936754E-05       *                     1_GWF-(1,3711)
 Package                           24                 -2.5881315                   1_GWF-SFR_0-(639)-inflow
 Model                             25          1  7.98933463E-06       *                     1_GWF-(1,3986)
 Package                           25                 -10.353955                   1_GWF-SFR_0-(639)-inflow
 Model                             26          1  4.22370029E-06       *                     1_GWF-(2,3681)
 Package                           26                 -3.4776033                   1_GWF-SFR_0-(639)-inflow
 Model                             27          1  4.28933293E-05       *                     1_GWF-(1,3711)
 Package                           27                 -2.5979152                   1_GWF-SFR_0-(639)-inflow
 Model                             28          1  1.07758151E-05       *                     1_GWF-(1,4755)
 Package                           28                 -31.323828                   1_GWF-SFR_0-(639)-inflow
 Model                             29          1  6.70575476E-06       *                     1_GWF-(2,3929)
 Package                           29                 -2.0730254                   1_GWF-SFR_0-(639)-inflow
 Model                             30          1  3.13834757E-06       *                     1_GWF-(1,3561)
 Package                           30                 -5.1119010                   1_GWF-SFR_0-(639)-inflow
 Model                             31          1  4.51382058E-06       *                     1_GWF-(2,3754)
 Package                           31                 -1.9666082                   1_GWF-SFR_0-(639)-inflow
 Model                             32          1  2.29071413E-06       *                     1_GWF-(1,3746)
 Package                           32                 -3.5562564                   1_GWF-SFR_0-(639)-inflow
 Model                             33          1  6.28209506E-06       *                     1_GWF-(1,3658)
 Package                           33                 -1.5740900                   1_GWF-SFR_0-(639)-inflow
 Model                             34          1  2.15495893E-06       *                     1_GWF-(3,4817)
 Package                           34                 -5.8495964                   1_GWF-SFR_0-(639)-inflow
 Model                             35          1  8.67323613E-05       *                     1_GWF-(3,3402)
 Package                           35                 -1.1017300                   1_GWF-SFR_0-(639)-inflow
 Model                             36          1  6.49178453E-06       *                     1_GWF-(1,5061)
 Package                           36                 -90.967607                   1_GWF-SFR_0-(639)-inflow
 Model                             37          1 -2.01246752E-06       *                     1_GWF-(1,3908)
 Package                           37                 -1.2169075                   1_GWF-SFR_0-(639)-inflow
 Model                             38          1 -1.21824362E-06       *                     1_GWF-(1,4004)
 Package                           38                -0.60651359                   1_GWF-SFR_0-(293)-inflow
 Model                             39          1 -5.68838789E-06       *                     1_GWF-(3,3728)
 Package                           39                -0.17090877                   1_GWF-SFR_0-(293)-inflow
 Model                             40          1 -1.78900783E-06       *                     1_GWF-(1,3935)
 Package                           40                 -2.2431651                   1_GWF-SFR_0-(293)-inflow
 Model                             41          1 -1.87036868E-06       *                     1_GWF-(1,4004)
 Package                           41                 0.48600665                   1_GWF-SFR_0-(639)-inflow
 Model                             42          1 -1.16646534E-06       *                     1_GWF-(1,4136)
 Package                           42                -0.54965525                   1_GWF-SFR_0-(293)-inflow
 Model                             43          1 -9.72825170E-07       *                     1_GWF-(1,4004)
 Package                           43                -0.40401266                   1_GWF-SFR_0-(293)-inflow
 Model                             44          1 -1.34466966E-06       *                     1_GWF-(1,4136)
 Package                           44                -0.15571063                   1_GWF-SFR_0-(293)-inflow
 Model                             45          1 -7.51515238E-07       *                     1_GWF-(3,4911)
 Package                           45                -0.45696353                   1_GWF-SFR_0-(293)-inflow
 Model                             46          1 -4.47289401E-06       *                     1_GWF-(2,3678)
 Package                           46                 0.12639301                   1_GWF-SFR_0-(639)-inflow
 Model                             47          1 -1.19070216E-06       *                     1_GWF-(1,5037)
 Package                           47                 -1.4674118                   1_GWF-SFR_0-(293)-inflow
 Model                             48          1 -1.24532953E-06       *                     1_GWF-(1,4004)
 Package                           48                -0.18373170                   1_GWF-SFR_0-(639)-inflow
 Model                             49          1 -4.15262697E-07       *                     1_GWF-(1,4249)
 Package                           49                -0.29381243                   1_GWF-SFR_0-(293)-inflow
 Model                             50          1 -3.09866277E-06       *                     1_GWF-(1,3658)
 Package                           50            -9.57129728E-02                   1_GWF-SFR_0-(293)-inflow
 Model                             51          1 -5.84029848E-07       *                     1_GWF-(1,5037)
 Package                           51                -0.94504072                   1_GWF-SFR_0-(293)-inflow
 Model                             52          1 -8.33297420E-07       *                     1_GWF-(1,3901)
 Package                           52                -0.17741014                   1_GWF-SFR_0-(639)-inflow
 Model                             53          1 -2.69809377E-07       *                     1_GWF-(3,4911)
 Package                           53                -0.28182396                   1_GWF-SFR_0-(293)-inflow
 Model                             54          1 -1.33116288E-06       *                     1_GWF-(3,3743)
 Package                           54             6.55054093E-02                   1_GWF-SFR_0-(639)-inflow
 Model                             55          1 -1.59002873E-07       *                     1_GWF-(2,4054)
 Package                           55                -0.42432377                   1_GWF-SFR_0-(293)-inflow
 Model                             56          1 -2.86710488E-07       *                     1_GWF-(3,3707)
 Package                           56            -3.77247815E-02                   1_GWF-SFR_0-(293)-inflow
 Model                             57          1 -1.62720468E-07       *                     1_GWF-(1,4128)
 Package                           57                 0.10504002                   1_GWF-SFR_0-(639)-inflow
 Model                             58          1 -1.13262480E-07       *                     1_GWF-(2,4066)
 Package                           58            -4.17223921E-02                   1_GWF-SFR_0-(293)-inflow
 Model                             59          1 -4.26840302E-07       *                     1_GWF-(1,3658)
 Package                           59            -3.80241609E-02                   1_GWF-SFR_0-(293)-inflow
 Model                             60          1 -1.39502923E-07       *                     1_GWF-(1,4315)
 Package                           60                 0.16467686                   1_GWF-SFR_0-(639)-inflow
 Model                             61          1 -1.30168281E-07       *                     1_GWF-(1,3658)
 Package                           61            -4.45431313E-02                   1_GWF-SFR_0-(293)-inflow
 Model                             62          1 -1.76901580E-07       *                     1_GWF-(1,3447)
 Package                           62             5.66770684E-02                   1_GWF-SFR_0-(639)-inflow
 Model                             63          1 -1.04440282E-07       *                     1_GWF-(1,4530)
 Package                           63            -5.13654808E-02                   1_GWF-SFR_0-(293)-inflow
 Model                             64          1 -2.63655458E-07       *                     1_GWF-(2,3711)
 Package                           64            -1.75619240E-02                   1_GWF-SFR_0-(293)-inflow
 Model                             65          1 -1.08677789E-07       *                     1_GWF-(1,4530)
 Package                           65             9.89613679E-02                   1_GWF-SFR_0-(639)-inflow
 Model                             66          1 -7.82318779E-08       *                     1_GWF-(1,3350)
 Package                           66            -2.17407284E-02                   1_GWF-SFR_0-(293)-inflow
 Model                             67          1 -2.50169663E-07       *                     1_GWF-(1,3777)
 Package                           67             2.95634632E-02                   1_GWF-SFR_0-(639)-inflow
 Model                             68          1 -8.71049224E-08       *                     1_GWF-(1,4580)
 Package                           68                 0.10526020                   1_GWF-SFR_0-(639)-inflow
 Model                             69          1 -1.99777418E-07       *                     1_GWF-(1,3711)
 Package                           69            -2.12655539E-02                   1_GWF-SFR_0-(293)-inflow
 Model                             70          1 -6.90082800E-08       *                     1_GWF-(1,4530)
 Package                           70             7.99989119E-02                   1_GWF-SFR_0-(639)-inflow
 Model                             71          1 -1.08141116E-07       *                     1_GWF-(1,3682)
 Package                           71            -1.21297897E-02                   1_GWF-SFR_0-(293)-inflow
 Model                             72          1 -6.16806304E-08       *                     1_GWF-(1,3986)
 Package                           72             4.35099258E-02                   1_GWF-SFR_0-(639)-inflow
 Model                             73          1 -3.97923046E-08       *                     1_GWF-(2,3681)
 Package                           73             1.20283086E-02                   1_GWF-SFR_0-(639)-inflow
 Model                             74          1 -1.89574152E-07       *                     1_GWF-(1,3711)
 Package                           74             1.52415081E-02                   1_GWF-SFR_0-(639)-inflow
 Model                             75          1 -4.70215156E-08       *                     1_GWF-(1,4755)
 Package                           75             8.28747606E-02                   1_GWF-SFR_0-(639)-inflow
 Model                             76          1 -1.22356887E-07       *                     1_GWF-(1,3711)
 Package                           76            -7.06777081E-03                   1_GWF-SFR_0-(293)-inflow
 Model                             77          1 -3.67129331E-08       *                     1_GWF-(1,4755)
 Package                           77             5.47411532E-02                   1_GWF-SFR_0-(639)-inflow
 Model                             78          1 -5.30193844E-08       *                     1_GWF-(1,3711)
 Package                           78             7.08797855E-03                   1_GWF-SFR_0-(639)-inflow
 Model                             79          1 -3.29911813E-08       *                     1_GWF-(1,3897)
 Package                           79             2.26432523E-02                   1_GWF-SFR_0-(639)-inflow
 Model                             80          1 -1.81646982E-08       *                     1_GWF-(1,3264)
 Package                           80             1.39833987E-02                   1_GWF-SFR_0-(639)-inflow
 Model                             81          1 -9.26187695E-08       *                     1_GWF-(1,3659)
 Package                           81             6.77068079E-03                   1_GWF-SFR_0-(639)-inflow
 Model                             82          1 -2.13835705E-08       *                     1_GWF-(1,3897)
 Package                           82             5.48395609E-02                   1_GWF-SFR_0-(639)-inflow
 Model                             83          1 -5.82949866E-08       *                     1_GWF-(2,3681)
 Package                           83             3.59616820E-03                   1_GWF-SFR_0-(639)-inflow
 Model                             84          1 -2.38266935E-08       *                     1_GWF-(1,3897)
 Package                           84             3.54023340E-02                   1_GWF-SFR_0-(639)-inflow
 Model                             85          1 -1.24489787E-08       *                     1_GWF-(3,4911)
 Package                           85             1.03438193E-02                   1_GWF-SFR_0-(639)-inflow
 Model                             86          1 -1.25107611E-07       *                     1_GWF-(2,3777)
 Package                           86             5.52577178E-03                   1_GWF-SFR_0-(639)-inflow
 Model                             87          1 -1.32910003E-08       *                     1_GWF-(2,4978)
 Package                           87             7.88739788E-02                   1_GWF-SFR_0-(639)-inflow
 Model                             88          1 -8.37977225E-08       *                     1_GWF-(1,3447)
 Package                           88             8.13254565E-03                   1_GWF-SFR_0-(639)-inflow
 Model                             89          1 -9.07695608E-09       *                     1_GWF-(1,5037)
 Package                           89             6.68156738E-02                   1_GWF-SFR_0-(639)-inflow
 Model                             90          1 -2.16650378E-08       *                     1_GWF-(1,3658)
 Package                           90             1.48157913E-03                   1_GWF-SFR_0-(639)-inflow
 Model                             91          1 -7.53961160E-09       *                     1_GWF-(3,4911)
 Package                           91             1.74860769E-02                   1_GWF-SFR_0-(639)-inflow
 Model                             92          1 -3.36022907E-08       *                     1_GWF-(3,3519)
 Package                           92             1.65595821E-03                   1_GWF-SFR_0-(639)-inflow
 Model                             93          1 -7.22281612E-09       *                     1_GWF-(1,4724)
 Package                           93             3.33222912E-02                   1_GWF-SFR_0-(639)-inflow
 Model                             94          1 -1.80918462E-08       *                     1_GWF-(3,3072)
 Package                           94             2.77676433E-03                   1_GWF-SFR_0-(639)-inflow
 Model                             95          1 -6.68477185E-09       *                     1_GWF-(1,5079)
 Package                           95             1.50386085E-02                   1_GWF-SFR_0-(639)-inflow
 Model                             96          1 -4.07956691E-09       *                     1_GWF-(2,3588)
 Package                           96             3.85322383E-03                   1_GWF-SFR_0-(639)-inflow
 Model                             97          1 -7.43884954E-09       *                     1_GWF-(2,2968)
 Package                           97             2.63999936E-03                   1_GWF-SFR_0-(639)-inflow
 Model                             98          1 -4.73830397E-09       *                     1_GWF-(1,3911)
 Package                           98             6.57381373E-03                   1_GWF-SFR_0-(639)-inflow
 Model                             99          1 -3.99624156E-09       *                     1_GWF-(1,3500)
 Package                           99             3.43820173E-03                   1_GWF-SFR_0-(639)-inflow
 Model                            100          1 -1.33123237E-08       *                     1_GWF-(1,3281)
 Package                          100             3.78590548E-03                   1_GWF-SFR_0-(639)-inflow
 Model                            101          1 -3.17502469E-09       *                     1_GWF-(2,4994)
 Package                          101             1.39548155E-02                   1_GWF-SFR_0-(639)-inflow
 Model                            102          1 -5.95191096E-09       *                     1_GWF-(1,3501)
 Package                          102             2.46841975E-03                   1_GWF-SFR_0-(639)-inflow
 Model                            103          1 -2.51308307E-09       *                     1_GWF-(3,4911)
 Package                          103             6.05384151E-03                   1_GWF-SFR_0-(639)-inflow
 Model                            104          1 -3.62688723E-09       *                     1_GWF-(1,3777)
 Package                          104             1.69359692E-03                   1_GWF-SFR_0-(639)-inflow
 Model                            105          1 -1.64617120E-09       *                     1_GWF-(3,4911)
 Package                          105             3.82438657E-03                   1_GWF-SFR_0-(639)-inflow
 Model                            106          1 -4.09541201E-09       *                     1_GWF-(1,3104)
 Package                          106             1.31255304E-03                   1_GWF-SFR_0-(639)-inflow
 Model                            107          1 -1.59868563E-09       *                     1_GWF-(3,4911)
 Package                          107             5.25086195E-03                   1_GWF-SFR_0-(639)-inflow
 Model                            108          1 -1.18352332E-08       *                     1_GWF-(1,3104)
 Package                          108             9.31469095E-04       *           1_GWF-SFR_0-(639)-inflow
 ----------------------------------------------------------------------------------------------------------


 108 CALLS TO NUMERICAL SOLUTION IN TIME STEP 1 STRESS PERIOD 2
 149 TOTAL ITERATIONS

 SLN_1 INNER ITERATION SUMMARY
 --------------------------------------------------------------------------------------------------------------------------------------
      TOTAL      OUTER      INNER                                                            MAXIMUM                                   
  ITERATION  ITERATION  ITERATION  MAXIMUM CHANGE      MAXIMUM CHANGE MODEL-(CELLID)        RESIDUAL    MAXIMUM RESIDUAL MODEL-(CELLID)
 --------------------------------------------------------------------------------------------------------------------------------------
          1          1          1 -3.05289738E-02                     1_GWF-(1,2089)       1.9125299                      1_GWF-(3,196)
          2          1          2 -7.76555050E-02                     1_GWF-(1,1847)      -3.0123386                     1_GWF-(3,4911)
          3          1          3     -0.54456843                     1_GWF-(3,1460)      -43.418535                     1_GWF-(3,4911)
          4          1          4      0.41068407                     1_GWF-(3,1460)      -1.2844158                     1_GWF-(3,5011)
          5          1          5     -0.10604227                     1_GWF-(3,1582)      -1.2545077                     1_GWF-(3,4911)
          6          1          6 -4.39543916E-02                     1_GWF-(3,1582)     -0.88244792                       1_GWF-(3,91)
          7          1          7  9.76644132E-02                     1_GWF-(3,1704)      -1.1878468                       1_GWF-(3,91)
          8          1          8 -8.80529855E-02                      1_GWF-(3,125)     -0.70225879                     1_GWF-(3,5011)
          9          1          9 -2.65421539E-02                     1_GWF-(1,1004)      -1.6583200                     1_GWF-(3,4911)
         10          1         10     -0.10231610                     1_GWF-(1,1004)      -1.3658171                     1_GWF-(3,1011)
         11          1         11  7.85437941E-02                     1_GWF-(1,1004)      0.17309500                     1_GWF-(3,1761)
         12          1         12 -2.24602024E-02                      1_GWF-(1,403)     -0.14329164                       1_GWF-(3,91)
         13          1         13 -1.48967827E-02                      1_GWF-(1,347)     -0.11960704                     1_GWF-(3,4911)
         14          1         14  8.85213883E-04                     1_GWF-(1,3605)      0.28103991                     1_GWF-(3,4911)
         15          1         15 -7.11148648E-03                     1_GWF-(1,1477)      0.32118167                     1_GWF-(3,4911)
         16          1         16 -3.60502623E-03                     1_GWF-(1,1732) -7.20662476E-02                     1_GWF-(3,4911)
         17          1         17 -5.06695555E-03                     1_GWF-(1,1731)  4.95808474E-02                     1_GWF-(3,1729)
         18          1         18  6.91032430E-03                     1_GWF-(2,4186)      0.18985386                     1_GWF-(3,4911)
         19          1         19 -1.25905015E-03                     1_GWF-(1,1259) -2.72510398E-02                       1_GWF-(3,91)
         20          1         20 -1.07988094E-03                     1_GWF-(3,1752)  2.46402808E-02                     1_GWF-(3,1468)
         21          1         21  3.04989838E-04                     1_GWF-(3,1871) -1.94867074E-02                       1_GWF-(3,91)
         22          2          1 -1.05953030E-02                     1_GWF-(1,5037)      0.10364256                     1_GWF-(3,5048)
         23          2          2 -1.17404257E-03                     1_GWF-(1,5057)  8.41295525E-02                     1_GWF-(3,4633)
         24          2          3 -4.16531312E-03                     1_GWF-(2,4978)      0.14759033                     1_GWF-(3,2848)
         25          2          4 -5.02885023E-03                     1_GWF-(1,2199)      0.17401300                     1_GWF-(3,1468)
         26          2          5 -6.00079332E-03                     1_GWF-(2,2236)      0.16251144                     1_GWF-(3,4393)
[...]
         47         16          1  8.87717282E-05                     1_GWF-(1,5037) -3.84197562E-03                     1_GWF-(3,1468)
         48         17          1  8.17110574E-04                     1_GWF-(1,2579) -7.26609159E-02                     1_GWF-(3,4911)
         49         18          1  9.76888369E-05                     1_GWF-(1,5085) -4.53602541E-03                     1_GWF-(3,3078)
         50         19          1  4.33807172E-04                     1_GWF-(1,3605) -5.43340238E-02                     1_GWF-(3,4911)
         51         20          1 -6.20597928E-05                     1_GWF-(3,5011) -3.54219801E-03                     1_GWF-(3,3904)
         52         21          1  1.51632544E-04                     1_GWF-(1,3899) -2.78781680E-02                     1_GWF-(3,4911)
         53         22          1  5.63468636E-05                     1_GWF-(3,4911) -4.06337194E-03                     1_GWF-(3,4911)
         54         23          1  8.68435305E-05                     1_GWF-(2,2456) -2.11657618E-02                     1_GWF-(3,4911)
         55         24          1  4.20251969E-05                     1_GWF-(1,4418) -7.71982865E-03                     1_GWF-(3,4911)
         56         25          1  6.21929413E-05                     1_GWF-(2,4249) -9.08229622E-03                     1_GWF-(3,4911)
         57         26          1  4.13296181E-05                     1_GWF-(1,4004) -1.98372952E-02                     1_GWF-(3,4911)
         58         27          1  2.90107066E-05                     1_GWF-(1,4249) -2.29924583E-03                     1_GWF-(3,4300)
         59         28          1  1.50901340E-04                     1_GWF-(1,3501) -3.53175362E-02                     1_GWF-(3,4911)
         60         29          1  3.09226438E-05                     1_GWF-(1,2307) -3.65564330E-03                     1_GWF-(3,4911)
         61         30          1  7.55699829E-05                     1_GWF-(3,2456) -1.09780784E-02                     1_GWF-(3,4911)
         62         31          1  3.37135850E-05                     1_GWF-(1,4004) -1.00621827E-02                     1_GWF-(3,4911)
         63         32          1  2.81333240E-05                     1_GWF-(1,4249) -2.42171327E-03                     1_GWF-(3,4002)
         64         33          1  6.22554775E-05                     1_GWF-(1,4004) -2.04569216E-02                     1_GWF-(3,4911)
         65         34          1  2.60873457E-05                     1_GWF-(1,2307) -4.68596884E-03                     1_GWF-(3,4911)
         66         35          1  4.19587878E-05                     1_GWF-(1,2579) -1.87750846E-03                     1_GWF-(3,2795)
         67         36          1  4.51490805E-05                     1_GWF-(1,2056) -1.73743606E-02                     1_GWF-(3,4911)
         68         37          1  2.34226627E-05                     1_GWF-(1,3367) -4.28307608E-03                     1_GWF-(3,4911)
         69         38          1  3.00107747E-05                     1_GWF-(3,2682) -1.62092388E-03                     1_GWF-(3,3090)
         70         39          1  1.48311927E-03                     1_GWF-(1,2375)     -0.11727154                     1_GWF-(3,4911)
         71         39          2 -1.52414485E-03                     1_GWF-(1,2375) -4.29838581E-02                     1_GWF-(3,4911)
         72         39          3  4.78378907E-04                     1_GWF-(1,2563) -2.97796028E-03                     1_GWF-(3,4911)
         73         40          1  5.36700584E-05                     1_GWF-(1,5037) -4.73045254E-04                     1_GWF-(3,5078)
         74         41          1  4.29703556E-05                     1_GWF-(1,5062) -2.78086131E-03                     1_GWF-(3,3656)
         75         42          1 -2.42498523E-05                     1_GWF-(1,5079) -1.58826678E-03                     1_GWF-(3,5011)
         76         43          1  1.68608706E-05                     1_GWF-(3,4362)  1.65007411E-03                     1_GWF-(3,4911)
         77         44          1  5.40945029E-06                     1_GWF-(1,3222)  9.44127467E-04                     1_GWF-(3,4911)
         78         45          1  6.79979280E-06                     1_GWF-(2,3496)  3.52286705E-03                     1_GWF-(3,4911)
         79         46          1  3.66558678E-06                     1_GWF-(3,4817) -2.88400190E-04                     1_GWF-(3,3500)
         80         47          1  2.17902736E-05                     1_GWF-(1,2569)  6.94484449E-03                     1_GWF-(3,4911)
         81         48          1 -6.09079130E-06                     1_GWF-(3,4911) -2.48940088E-04                     1_GWF-(3,3090)
         82         49          1  4.40947175E-05                     1_GWF-(1,2990)  8.72438405E-03                     1_GWF-(3,4911)
         83         50          1  9.99625169E-06                     1_GWF-(1,5037)  5.92156194E-04                     1_GWF-(3,4911)
         84         51          1  4.45321087E-06                     1_GWF-(1,4399)  1.33672813E-03                     1_GWF-(3,4911)
         85         52          1  2.98283845E-06                     1_GWF-(1,2990) -2.95109602E-04                     1_GWF-(3,2727)
         86         53          1  5.90961454E-06                     1_GWF-(1,2570)  2.85349586E-03                     1_GWF-(3,4911)
         87         54          1 -2.31716893E-06                     1_GWF-(3,4911) -1.27930649E-04                     1_GWF-(3,3507)
         88         55          1  3.92987426E-05                     1_GWF-(1,2567)  2.64191191E-03                     1_GWF-(3,4911)
         89         56          1  5.82481983E-06                     1_GWF-(1,5061)  2.77872060E-04                     1_GWF-(3,4911)
         90         57          1  2.40499202E-06                     1_GWF-(2,4258)  3.91817383E-04                     1_GWF-(3,4911)
         91         58          1  2.16328311E-06                     1_GWF-(1,3500)  3.33691317E-04                     1_GWF-(3,4911)
         92         59          1  1.62086755E-06                     1_GWF-(1,4249)  3.55902455E-04                     1_GWF-(3,4911)
         93         60          1  1.74583171E-06                     1_GWF-(1,3658)  3.64024324E-04                     1_GWF-(3,4911)
         94         61          1  1.59364987E-06                     1_GWF-(1,4249)  2.93651712E-04                     1_GWF-(3,4911)
         95         62          1  1.56157676E-06                     1_GWF-(1,3658)  4.34677860E-04                     1_GWF-(3,4911)
         96         63          1  1.36045687E-06                     1_GWF-(1,4136) -2.04506531E-04                     1_GWF-(3,5011)
         97         64          1  1.61304720E-06                     1_GWF-(1,3658)  6.25238418E-04                     1_GWF-(3,4911)
         98         65          1  1.12048622E-06                     1_GWF-(2,3815) -9.95255251E-05                     1_GWF-(3,4366)
         99         66          1  2.42089580E-06                     1_GWF-(1,3658)  1.18539422E-03                     1_GWF-(3,4911)
        100         67          1 -1.13472962E-06                     1_GWF-(3,4911) -5.49967324E-05                     1_GWF-(3,2727)
        101         68          1  1.96806315E-05                     1_GWF-(1,2571)  2.02245800E-03                     1_GWF-(3,4911)
        102         69          1  2.72044773E-06                     1_GWF-(1,5043)  1.38645154E-04                     1_GWF-(3,4911)
        103         70          1  5.95851727E-07                     1_GWF-(1,4128)  1.44721413E-04                     1_GWF-(3,4911)
        104         71          1  5.55298489E-07                     1_GWF-(1,4249)  8.26056724E-05                     1_GWF-(3,4911)
        105         72          1  6.21987218E-07                     1_GWF-(1,4128)  2.54351937E-04                     1_GWF-(3,4911)
        106         73          1  3.77845209E-07                     1_GWF-(1,4249) -3.38958236E-05                     1_GWF-(3,3090)
        107         74          1  1.20539604E-06                     1_GWF-(1,3176)  5.25000497E-04                     1_GWF-(3,4911)
        108         75          1 -4.65168024E-07                     1_GWF-(3,4911) -2.06085629E-05                     1_GWF-(3,2727)
        109         76          1  4.07225819E-06                     1_GWF-(1,2563)  6.81402647E-04                     1_GWF-(3,4911)
        110         77          1  7.07517195E-07                     1_GWF-(1,5043) -3.70990520E-05                     1_GWF-(3,5011)
        111         78          1  4.78838612E-07                     1_GWF-(1,4128)  1.45858178E-04                     1_GWF-(3,4911)
        112         79          1  3.19648082E-07                     1_GWF-(1,4249) -2.29521847E-05                     1_GWF-(3,4004)
        113         80          1  7.34143845E-07                     1_GWF-(1,4004)  2.83848967E-04                     1_GWF-(3,4911)
        114         81          1 -2.75540905E-07                     1_GWF-(3,4911) -1.18644226E-05                     1_GWF-(3,1468)
        115         82          1  3.50414603E-06                     1_GWF-(1,2563)  4.81735549E-04                     1_GWF-(3,4911)
        116         83          1  7.12853988E-07                     1_GWF-(1,5037)  3.63635198E-05                     1_GWF-(3,4911)
        117         84          1  1.87431780E-07                     1_GWF-(1,4004)  2.66898928E-05                     1_GWF-(3,4911)
        118         85          1  2.28692246E-07                     1_GWF-(1,4249)  4.57879167E-05                     1_GWF-(3,4911)
        119         86          1  1.68899140E-07                     1_GWF-(1,4004)  1.71861460E-05                     1_GWF-(3,4911)
        120         87          1  2.52733504E-07                     1_GWF-(1,4249)  7.04310944E-05                     1_GWF-(3,4911)
        121         88          1  1.42803105E-07                     1_GWF-(1,4004) -7.72231497E-06                     1_GWF-(3,4248)
        122         89          1  4.71199417E-07                     1_GWF-(3,2456)  1.48728668E-04                     1_GWF-(3,4911)
        123         90          1  1.41210877E-07                     1_GWF-(3,5011) -7.50443717E-06                     1_GWF-(3,3507)
        124         91          1  4.42886639E-07                     1_GWF-(1,4004)  1.51927359E-04                     1_GWF-(3,4911)
        125         92          1 -1.47535252E-07                     1_GWF-(3,4911) -6.59852756E-06                     1_GWF-(3,4248)
        126         93          1  3.08408686E-07                     1_GWF-(3,2456)  1.09293090E-04                     1_GWF-(3,4911)
        127         94          1  1.00376419E-07                     1_GWF-(3,5011) -5.48812136E-06                     1_GWF-(3,3507)
        128         95          1  4.20480704E-07                     1_GWF-(1,2292)  1.27061547E-04                     1_GWF-(3,4911)
        129         96          1 -1.15257746E-07                     1_GWF-(3,4911) -5.45918152E-06                     1_GWF-(3,4248)
        130         97          1  1.83358374E-07                     1_GWF-(2,2456)  5.95665341E-05                     1_GWF-(3,4911)
        131         98          1  6.49467208E-08                     1_GWF-(1,4704) -3.17874501E-06                     1_GWF-(3,2727)
        132         99          1  1.03695020E-06                     1_GWF-(2,2793)  3.73552456E-05                     1_GWF-(3,4911)
        133        100          1  1.63788974E-07                     1_GWF-(1,4973)  7.92005515E-06                     1_GWF-(3,4911)
        134        101          1  5.10807154E-08                     1_GWF-(2,2456)  4.94075132E-06                     1_GWF-(3,4911)
        135        102          1  4.87208125E-08                     1_GWF-(1,2794)  1.61039998E-05                     1_GWF-(3,4911)
        136        103          1  2.80849535E-08                     1_GWF-(1,2456) -1.83903185E-06                     1_GWF-(3,2727)
        137        104          1  1.24862825E-07                     1_GWF-(1,2794)  3.21774316E-05                     1_GWF-(3,4911)
        138        105          1  4.43752150E-08                     1_GWF-(1,4748) -1.76490732E-06                     1_GWF-(3,5011)
        139        106          1  8.80318454E-08                     1_GWF-(1,2563)  2.56400803E-05                     1_GWF-(3,4911)
        140        107          1  2.98176079E-08                     1_GWF-(1,4903) -1.46648602E-06                     1_GWF-(3,2727)
        141        108          1  1.61033489E-07                     1_GWF-(2,2446)  1.37092173E-05                     1_GWF-(3,4911)
        142        109          1  3.58717313E-08                     1_GWF-(1,5083)  3.56881239E-06                     1_GWF-(3,4911)
        143        110          1  3.09579760E-08                     1_GWF-(1,3222) -1.46353128E-06                     1_GWF-(3,2727)
        144        111          1  8.15034237E-08                     1_GWF-(3,2611)  1.56673020E-05                     1_GWF-(3,4911)
        145        112          1  3.03867764E-08                     1_GWF-(1,2902)  3.06121444E-06                     1_GWF-(3,4911)
        146        113          1  4.66313624E-08                     1_GWF-(1,3222) -5.39958054E-06                     1_GWF-(3,5011)
        147        114          1  2.74673090E-08                     1_GWF-(2,2857)  1.54491602E-06                     1_GWF-(3,4911)
        148        115          1  3.13574953E-08                     1_GWF-(1,1719)  1.06211260E-05                     1_GWF-(3,4911)
        149        116          1  1.33613328E-08                     1_GWF-(3,4817) -7.33908647E-07                     1_GWF-(3,3507)
        150        117          1  7.43992535E-08                     1_GWF-(1,1764)  1.79338348E-05                     1_GWF-(3,4911)
        151        118          1 -1.72969857E-08                     1_GWF-(3,4911) -9.95021273E-07                     1_GWF-(3,1859)
        152        119          1  4.35827397E-08                     1_GWF-(1,1719)  7.23878291E-06                     1_GWF-(3,4911)
        153        120          1  2.06324966E-08                     1_GWF-(2,3079) -7.44136352E-07                     1_GWF-(3,3647)
        154        121          1  4.73984377E-08                     1_GWF-(2,3644)  9.12691949E-06                     1_GWF-(3,4911)
        155        122          1  1.25524664E-08                     1_GWF-(2,1711) -1.25690661E-06                     1_GWF-(3,1468)
        156        123          1  3.22467337E-08                     1_GWF-(3,1711)  3.06770397E-06                     1_GWF-(3,4911)
        157        124          1  1.27942066E-08                     1_GWF-(2,4034)  2.24935417E-06                     1_GWF-(3,4911)
        158        125          1  7.37188274E-09                     1_GWF-(1,2587)  1.47519367E-06                     1_GWF-(3,4911)
        159        126          1  8.91485018E-09                     1_GWF-(1,3066)  5.12466903E-06                     1_GWF-(3,4911)
        160        127          1  5.73495930E-09                     1_GWF-(3,4817) -4.79358677E-07                     1_GWF-(3,3090)
        161        128          1  3.36805727E-08                     1_GWF-(2,2943)  1.10511464E-05                     1_GWF-(3,4911)
        162        129          1 -9.56300188E-09                     1_GWF-(3,4911) -3.67552137E-07                     1_GWF-(3,2727)
        163        130          1  5.71352573E-08                     1_GWF-(1,2585)  1.54595752E-05                     1_GWF-(3,4911)
        164        131          1  1.64977100E-08                     1_GWF-(1,5061)  8.61099303E-07                     1_GWF-(3,4911)
        165        132          1  6.38757677E-09                     1_GWF-(1,3235)  2.66396641E-06                     1_GWF-(3,4911)
        166        133          1  3.44432338E-09                     1_GWF-(3,4817) -3.15089158E-07                     1_GWF-(3,3090)
        167        134          1  1.41715717E-08                     1_GWF-(1,2943)  5.92200463E-06                     1_GWF-(3,4911)
        168        135          1 -5.02934443E-09                     1_GWF-(3,4911) -2.12607451E-07                     1_GWF-(3,1468)
        169        136          1  3.88640152E-08                     1_GWF-(1,2584)  7.91475929E-06                     1_GWF-(3,4911)
        170        137          1  9.10086147E-09                     1_GWF-(1,5043)  4.95145808E-07                     1_GWF-(3,4911)
        171        138          1  5.81679590E-09                     1_GWF-(1,3831)  1.21289821E-06                     1_GWF-(3,4911)
        172        139          1  3.05101734E-09                     1_GWF-(1,3244)  2.81593806E-07                     1_GWF-(3,4911)
        173        140          1  4.46810987E-09                     1_GWF-(1,2940)  2.17536694E-06                     1_GWF-(3,4911)
        174        141          1  2.32143181E-09                     1_GWF-(3,4817) -1.30325374E-07                     1_GWF-(3,3090)
        175        142          1  2.53369867E-08                     1_GWF-(1,2574)  4.75062469E-06                     1_GWF-(3,4911)
        176        143          1  4.69048972E-09                     1_GWF-(1,4993)  2.33408645E-07                     1_GWF-(3,4911)
        177        144          1  3.01571925E-09                     1_GWF-(2,3495)  1.33596614E-06                     1_GWF-(3,4911)
        178        145          1 -1.21434688E-09                     1_GWF-(2,4994) -1.15076239E-07                     1_GWF-(3,2727)
        179        146          1  1.88699445E-08                     1_GWF-(3,2456)  3.53936806E-06                     1_GWF-(3,4911)
        180        147          1  3.83041186E-09                     1_GWF-(2,4978)  2.79079768E-07                     1_GWF-(3,4911)
        181        148          1  1.70211955E-09                     1_GWF-(1,4035) -2.69615710E-07                     1_GWF-(3,5011)
        182        149          1  1.44363533E-09                     1_GWF-(2,2727)  1.94599602E-07                     1_GWF-(3,4911)
        183        150          1  1.21607020E-09                     1_GWF-(1,2940)  5.77753736E-07                     1_GWF-(3,4911)
        184        151          1  8.32524328E-10                     1_GWF-(3,4817) -5.96441572E-08                     1_GWF-(3,3090)
        185        152          1  3.17123838E-09                     1_GWF-(1,2940)  1.27355685E-06                     1_GWF-(3,4911)
 --------------------------------------------------------------------------------------------------------------------------------------



 MEMORY MANAGER TOTAL STORAGE BY DATA TYPE, IN MEGABYTES
 -------------------------------
                    ALLOCATED   
 DATA TYPE           MEMORY     
 -------------------------------
 Character        8.25330000E-02
 Logical          4.40000000E-05
 Integer          4.4295080     
 Real             8.7474720     
 -------------------------------
 Total            13.259557     
 -------------------------------


 
 Run end date and time (yyyy/mm/dd hh:mm:ss): 2023/10/17 11:49:18
 Elapsed run time: 25.341 Seconds

WARNING REPORT:

  1. NONLINEAR BLOCK VARIABLE 'OUTER_HCLOSE' IN FILE 'freyberg6.ims' WAS
     DEPRECATED IN VERSION 6.1.1. SETTING OUTER_DVCLOSE TO OUTER_HCLOSE VALUE.
  2. LINEAR BLOCK VARIABLE 'INNER_HCLOSE' IN FILE 'freyberg6.ims' WAS
     DEPRECATED IN VERSION 6.1.1. SETTING INNER_DVCLOSE TO INNER_HCLOSE VALUE.
  3.  Simulation convergence failure occurred 2 time(s).
 Normal termination of simulation.
